Circuit: * Z:\home\jkirschner\Documents\MADVLSI\ADC\analog_switch_current_steer.asc

Direct Newton iteration for .op point succeeded.

Date: Sat Dec 01 13:24:34 2012
Total elapsed time: 1.498 seconds.

tnom = 27
temp = 27
method = modified trap
totiter = 9720
traniter = 9685
tranpoints = 4338
accept = 4263
rejected = 75
matrix size = 29
fillins = 10
solver = Normal
Thread vector: 71.8/39.6[2] 12.9/7.9[2] 11.0/3.8[2] 1.7/73.3[1]  2592/500
Matrix Compiler1: 3.43 KB object code size  2.9/2.5/[1.7]
Matrix Compiler2: 3.42 KB object code size  110.7/2.5/[2.2]


