Circuit: * Z:\home\jkirschner\Documents\MADVLSI\ADC\analog_switch_current_steer_test.asc

Direct Newton iteration for .op point succeeded.

Date: Sat Dec 01 14:03:51 2012
Total elapsed time: 0.828 seconds.

tnom = 27
temp = 27
method = modified trap
totiter = 9697
traniter = 9662
tranpoints = 4335
accept = 4261
rejected = 74
matrix size = 29
fillins = 10
solver = Normal
Thread vector: 68.8/40.5[2] 12.6/9.2[2] 4.2/93.4[1] 1.6/4.0[1]  2592/500
Matrix Compiler1: 3.43 KB object code size  4.2/2.3/[1.7]
Matrix Compiler2: 3.42 KB object code size  2.2/2.3/[2.1]


