Circuit: * C:\Users\sbecht\Documents\GitHub\ultra-efficient-adc\Simulations\comparator_preamp.asc

Direct Newton iteration for .op point succeeded.
.step v3=1
Heightened Def Con from 2.2e-005 to 2.2002e-005
Heightened Def Con from 4.3e-005 to 4.3e-005
Heightened Def Con from 4.3e-005 to 4.3002e-005
.step v3=1.2
.step v3=1.4
.step v3=1.6
.step v3=1.8
.step v3=2
.step v3=2.2
.step v3=2.4

Date: Thu Nov 29 11:35:58 2012
Total elapsed time: 10.483 seconds.

tnom = 27
temp = 27
method = modified trap
totiter = 60931
traniter = 60529
tranpoints = 30240
accept = 30191
rejected = 50
matrix size = 14
fillins = 0
solver = Normal
Matrix Compiler1: 582 bytes object code size  1.6/1.4/[1.3]
Matrix Compiler2: off  [1.5]/1.6/3.0


