Circuit: * C:\Users\awhitcombe\Documents\GitHub\ultra-efficient-adc\FlipFlop_test - Copy.asc

WARNING: Less than two connections to node D.  This node is used by V3.
WARNING: Less than two connections to node RESETB.  This node is used by V4.
Instance "m:x1:x5:4": Length shorter than recommended for a level 1 MOSFET.
Instance "m:x1:x5:4": Width narrower than recommended for a level 1 MOSFET.
Instance "m:x1:x5:3": Length shorter than recommended for a level 1 MOSFET.
Instance "m:x1:x5:3": Width narrower than recommended for a level 1 MOSFET.
Instance "m:x1:x4:4": Length shorter than recommended for a level 1 MOSFET.
Instance "m:x1:x4:4": Width narrower than recommended for a level 1 MOSFET.
Instance "m:x1:x4:3": Length shorter than recommended for a level 1 MOSFET.
Instance "m:x1:x4:3": Width narrower than recommended for a level 1 MOSFET.
Instance "m:x1:x3:4": Length shorter than recommended for a level 1 MOSFET.
Instance "m:x1:x3:4": Width narrower than recommended for a level 1 MOSFET.
Instance "m:x1:x3:3": Length shorter than recommended for a level 1 MOSFET.
Instance "m:x1:x3:3": Width narrower than recommended for a level 1 MOSFET.
Instance "m:x1:x1:26": Length shorter than recommended for a level 1 MOSFET.
Instance "m:x1:x1:25": Length shorter than recommended for a level 1 MOSFET.
Instance "m:x1:x1:24": Length shorter than recommended for a level 1 MOSFET.
Instance "m:x1:x1:24": Width narrower than recommended for a level 1 MOSFET.
Instance "m:x1:x1:22": Length shorter than recommended for a level 1 MOSFET.
Instance "m:x1:x1:22": Width narrower than recommended for a level 1 MOSFET.
Instance "m:x1:x1:18": Length shorter than recommended for a level 1 MOSFET.
Instance "m:x1:x1:18": Width narrower than recommended for a level 1 MOSFET.
Instance "m:x1:x1:17": Length shorter than recommended for a level 1 MOSFET.
Instance "m:x1:x1:17": Width narrower than recommended for a level 1 MOSFET.
Instance "m:x1:x1:16": Length shorter than recommended for a level 1 MOSFET.
Instance "m:x1:x1:16": Width narrower than recommended for a level 1 MOSFET.
Instance "m:x1:x1:12": Length shorter than recommended for a level 1 MOSFET.
Instance "m:x1:x1:12": Width narrower than recommended for a level 1 MOSFET.
Instance "m:x1:x1:11": Length shorter than recommended for a level 1 MOSFET.
Instance "m:x1:x1:11": Width narrower than recommended for a level 1 MOSFET.
Instance "m:x1:x1:10": Length shorter than recommended for a level 1 MOSFET.
Instance "m:x1:x1:10": Width narrower than recommended for a level 1 MOSFET.
Instance "m:x1:x1:9": Length shorter than recommended for a level 1 MOSFET.
Instance "m:x1:x1:9": Width narrower than recommended for a level 1 MOSFET.
Instance "m:x1:x1:6": Length shorter than recommended for a level 1 MOSFET.
Instance "m:x1:x1:6": Width narrower than recommended for a level 1 MOSFET.
Instance "m:x1:x1:4": Length shorter than recommended for a level 1 MOSFET.
Instance "m:x1:x1:4": Width narrower than recommended for a level 1 MOSFET.
Instance "m:x1:x1:3": Length shorter than recommended for a level 1 MOSFET.
Instance "m:x1:x1:3": Width narrower than recommended for a level 1 MOSFET.
Instance "m:x1:x2:2": Length shorter than recommended for a level 1 MOSFET.
Instance "m:x1:x2:2": Width narrower than recommended for a level 1 MOSFET.
Instance "m:x2:2": Length shorter than recommended for a level 1 MOSFET.
Instance "m:x2:2": Width narrower than recommended for a level 1 MOSFET.
Instance "m:x1:x5:2": Length shorter than recommended for a level 1 MOSFET.
Instance "m:x1:x5:2": Width narrower than recommended for a level 1 MOSFET.
Instance "m:x1:x5:1": Length shorter than recommended for a level 1 MOSFET.
Instance "m:x1:x5:1": Width narrower than recommended for a level 1 MOSFET.
Instance "m:x1:x4:2": Length shorter than recommended for a level 1 MOSFET.
Instance "m:x1:x4:2": Width narrower than recommended for a level 1 MOSFET.
Instance "m:x1:x4:1": Length shorter than recommended for a level 1 MOSFET.
Instance "m:x1:x4:1": Width narrower than recommended for a level 1 MOSFET.
Instance "m:x1:x3:2": Length shorter than recommended for a level 1 MOSFET.
Instance "m:x1:x3:2": Width narrower than recommended for a level 1 MOSFET.
Instance "m:x1:x3:1": Length shorter than recommended for a level 1 MOSFET.
Instance "m:x1:x3:1": Width narrower than recommended for a level 1 MOSFET.
Instance "m:x1:x1:23": Length shorter than recommended for a level 1 MOSFET.
Instance "m:x1:x1:23": Width narrower than recommended for a level 1 MOSFET.
Instance "m:x1:x1:21": Length shorter than recommended for a level 1 MOSFET.
Instance "m:x1:x1:21": Width narrower than recommended for a level 1 MOSFET.
Instance "m:x1:x1:20": Length shorter than recommended for a level 1 MOSFET.
Instance "m:x1:x1:20": Width narrower than recommended for a level 1 MOSFET.
Instance "m:x1:x1:19": Length shorter than recommended for a level 1 MOSFET.
Instance "m:x1:x1:19": Width narrower than recommended for a level 1 MOSFET.
Instance "m:x1:x1:15": Length shorter than recommended for a level 1 MOSFET.
Instance "m:x1:x1:15": Width narrower than recommended for a level 1 MOSFET.
Instance "m:x1:x1:14": Length shorter than recommended for a level 1 MOSFET.
Instance "m:x1:x1:14": Width narrower than recommended for a level 1 MOSFET.
Instance "m:x1:x1:13": Length shorter than recommended for a level 1 MOSFET.
Instance "m:x1:x1:13": Width narrower than recommended for a level 1 MOSFET.
Instance "m:x1:x1:8": Length shorter than recommended for a level 1 MOSFET.
Instance "m:x1:x1:8": Width narrower than recommended for a level 1 MOSFET.
Instance "m:x1:x1:7": Length shorter than recommended for a level 1 MOSFET.
Instance "m:x1:x1:7": Width narrower than recommended for a level 1 MOSFET.
Instance "m:x1:x1:5": Length shorter than recommended for a level 1 MOSFET.
Instance "m:x1:x1:5": Width narrower than recommended for a level 1 MOSFET.
Instance "m:x1:x1:2": Length shorter than recommended for a level 1 MOSFET.
Instance "m:x1:x1:2": Width narrower than recommended for a level 1 MOSFET.
Instance "m:x1:x1:1": Length shorter than recommended for a level 1 MOSFET.
Instance "m:x1:x1:1": Width narrower than recommended for a level 1 MOSFET.
Instance "m:x1:x2:1": Length shorter than recommended for a level 1 MOSFET.
Instance "m:x1:x2:1": Width narrower than recommended for a level 1 MOSFET.
Instance "m:x2:1": Length shorter than recommended for a level 1 MOSFET.
Instance "m:x2:1": Width narrower than recommended for a level 1 MOSFET.
Direct Newton iteration for .op point succeeded.
Heightened Def Con from 5.00058e-006 ++++++++++++++++++++++++to 5.001e-006
Heightened Def Con from 5.001e-006 ++++++++++++++++++++to 5.0011e-006
Heightened Def Con from 5.0011e-006 +++++to 5.0021e-006
Heightened Def Con from 1.50014e-005 +++++++++++++++++++++++to 1.5002e-005
Heightened Def Con from 1.5002e-005 ++++++++++++++++++++to 1.50021e-005

Date: Thu Nov 29 00:03:44 2012
Total elapsed time: 1.030 seconds.

tnom = 27
temp = 27
method = modified trap
totiter = 35827
traniter = 35801
tranpoints = 7454
accept = 6417
rejected = 1134
matrix size = 30
fillins = 24
solver = Normal
Thread vector: 27.3/14.7[2] 11.7/6.6[2] 4.8/4.7[1] 1.7/269.9[1]  2592/500
Matrix Compiler1: 4.27 KB object code size  2.6/2.5/[1.7]
Matrix Compiler2: off  [1.9]/2.1/2.9


