Circuit: * Z:\home\jkirschner\Documents\MADVLSI\ADC\state_machine_test.asc

WARNING: Node X6:V- is floating.
WARNING: Node X6:V+ is floating.

WARNING: Less than two connections to node X6:V-.  This node is used by M:X6:1.
WARNING: Less than two connections to node X6:V+.  This node is used by M:X6:2.
Direct Newton iteration failed to find .op point.  (Use ".option noopiter" to skip.)
Starting Gmin stepping
Gmin = 10
Gmin = 1.07374
Gmin = 0.115292
Gmin = 0.0123794
Gmin = 0.00132923
Gmin = 0.000142725
Gmin = 1.5325e-005
Gmin = 1.6455e-006
Gmin = 1.76685e-007
Gmin = 1.89714e-008
Gmin = 2.03704e-009
Gmin = 2.18725e-010
Gmin = 2.34854e-011
Gmin = 2.52173e-012
Gmin = 2.70769e-013
Gmin = 0
Gmin stepping succeeded in finding the operating point.


Date: Sat Dec 01 16:12:27 2012
Total elapsed time: 58.211 seconds.

tnom = 27
temp = 27
method = modified trap
totiter = 64764
traniter = 64239
tranpoints = 14046
accept = 11391
rejected = 2655
matrix size = 151
fillins = 270
solver = Normal
Thread vector: 721.7/511.6[2] 88.2/368.7[1] 19.9/57.2[1] 5.5/358.2[1]  2592/500
Matrix Compiler1: 42.2 KB object code size  16.9/71.9/[5.5]
Matrix Compiler2: 24.7 KB object code size  9.2/7.6/[4.7]


