Circuit: * C:\Users\awhitcombe\Documents\GitHub\ultra-efficient-adc\state_machine_test.asc

WARNING: Node X6:V- is floating.
WARNING: Node X6:V+ is floating.

Instance "m:x18:4": Length shorter than recommended for a level 1 MOSFET.
Instance "m:x18:4": Width narrower than recommended for a level 1 MOSFET.
Instance "m:x18:3": Length shorter than recommended for a level 1 MOSFET.
Instance "m:x18:3": Width narrower than recommended for a level 1 MOSFET.
Instance "m:x17:4": Length shorter than recommended for a level 1 MOSFET.
Instance "m:x17:4": Width narrower than recommended for a level 1 MOSFET.
Instance "m:x17:3": Length shorter than recommended for a level 1 MOSFET.
Instance "m:x17:3": Width narrower than recommended for a level 1 MOSFET.
Instance "m:x16:4": Length shorter than recommended for a level 1 MOSFET.
Instance "m:x16:4": Width narrower than recommended for a level 1 MOSFET.
Instance "m:x16:3": Length shorter than recommended for a level 1 MOSFET.
Instance "m:x16:3": Width narrower than recommended for a level 1 MOSFET.
Instance "m:x15:2": Length shorter than recommended for a level 1 MOSFET.
Instance "m:x15:2": Width narrower than recommended for a level 1 MOSFET.
Instance "m:x14:4": Length shorter than recommended for a level 1 MOSFET.
Instance "m:x14:4": Width narrower than recommended for a level 1 MOSFET.
Instance "m:x14:3": Length shorter than recommended for a level 1 MOSFET.
Instance "m:x14:3": Width narrower than recommended for a level 1 MOSFET.
Instance "m:x13:2": Length shorter than recommended for a level 1 MOSFET.
Instance "m:x13:2": Width narrower than recommended for a level 1 MOSFET.
Instance "m:x12:4": Length shorter than recommended for a level 1 MOSFET.
Instance "m:x12:4": Width narrower than recommended for a level 1 MOSFET.
Instance "m:x12:3": Length shorter than recommended for a level 1 MOSFET.
Instance "m:x12:3": Width narrower than recommended for a level 1 MOSFET.
Instance "m:x11:2": Length shorter than recommended for a level 1 MOSFET.
Instance "m:x11:2": Width narrower than recommended for a level 1 MOSFET.
Instance "m:x10:2": Length shorter than recommended for a level 1 MOSFET.
Instance "m:x10:2": Width narrower than recommended for a level 1 MOSFET.
Instance "m:x9:4": Length shorter than recommended for a level 1 MOSFET.
Instance "m:x9:4": Width narrower than recommended for a level 1 MOSFET.
Instance "m:x9:3": Length shorter than recommended for a level 1 MOSFET.
Instance "m:x9:3": Width narrower than recommended for a level 1 MOSFET.
Instance "m:x8:2": Length shorter than recommended for a level 1 MOSFET.
Instance "m:x8:2": Width narrower than recommended for a level 1 MOSFET.
Instance "m:x7:2": Length shorter than recommended for a level 1 MOSFET.
Instance "m:x7:2": Width narrower than recommended for a level 1 MOSFET.
Instance "m:x6:2": Length shorter than recommended for a level 1 MOSFET.
Instance "m:x6:2": Width narrower than recommended for a level 1 MOSFET.
Instance "m1": Length shorter than recommended for a level 1 MOSFET.
Instance "m1": Width narrower than recommended for a level 1 MOSFET.
Instance "m:x5:2": Length shorter than recommended for a level 1 MOSFET.
Instance "m:x5:2": Width narrower than recommended for a level 1 MOSFET.
Instance "m:x4:26": Length shorter than recommended for a level 1 MOSFET.
Instance "m:x4:25": Length shorter than recommended for a level 1 MOSFET.
Instance "m:x4:24": Length shorter than recommended for a level 1 MOSFET.
Instance "m:x4:24": Width narrower than recommended for a level 1 MOSFET.
Instance "m:x4:22": Length shorter than recommended for a level 1 MOSFET.
Instance "m:x4:22": Width narrower than recommended for a level 1 MOSFET.
Instance "m:x4:18": Length shorter than recommended for a level 1 MOSFET.
Instance "m:x4:18": Width narrower than recommended for a level 1 MOSFET.
Instance "m:x4:17": Length shorter than recommended for a level 1 MOSFET.
Instance "m:x4:17": Width narrower than recommended for a level 1 MOSFET.
Instance "m:x4:16": Length shorter than recommended for a level 1 MOSFET.
Instance "m:x4:16": Width narrower than recommended for a level 1 MOSFET.
Instance "m:x4:12": Length shorter than recommended for a level 1 MOSFET.
Instance "m:x4:12": Width narrower than recommended for a level 1 MOSFET.
Instance "m:x4:11": Length shorter than recommended for a level 1 MOSFET.
Instance "m:x4:11": Width narrower than recommended for a level 1 MOSFET.
Instance "m:x4:10": Length shorter than recommended for a level 1 MOSFET.
Instance "m:x4:10": Width narrower than recommended for a level 1 MOSFET.
Instance "m:x4:9": Length shorter than recommended for a level 1 MOSFET.
Instance "m:x4:9": Width narrower than recommended for a level 1 MOSFET.
Instance "m:x4:6": Length shorter than recommended for a level 1 MOSFET.
Instance "m:x4:6": Width narrower than recommended for a level 1 MOSFET.
Instance "m:x4:4": Length shorter than recommended for a level 1 MOSFET.
Instance "m:x4:4": Width narrower than recommended for a level 1 MOSFET.
Instance "m:x4:3": Length shorter than recommended for a level 1 MOSFET.
Instance "m:x4:3": Width narrower than recommended for a level 1 MOSFET.
Instance "m:x3:26": Length shorter than recommended for a level 1 MOSFET.
Instance "m:x3:25": Length shorter than recommended for a level 1 MOSFET.
Instance "m:x3:24": Length shorter than recommended for a level 1 MOSFET.
Instance "m:x3:24": Width narrower than recommended for a level 1 MOSFET.
Instance "m:x3:22": Length shorter than recommended for a level 1 MOSFET.
Instance "m:x3:22": Width narrower than recommended for a level 1 MOSFET.
Instance "m:x3:18": Length shorter than recommended for a level 1 MOSFET.
Instance "m:x3:18": Width narrower than recommended for a level 1 MOSFET.
Instance "m:x3:17": Length shorter than recommended for a level 1 MOSFET.
Instance "m:x3:17": Width narrower than recommended for a level 1 MOSFET.
Instance "m:x3:16": Length shorter than recommended for a level 1 MOSFET.
Instance "m:x3:16": Width narrower than recommended for a level 1 MOSFET.
Instance "m:x3:12": Length shorter than recommended for a level 1 MOSFET.
Instance "m:x3:12": Width narrower than recommended for a level 1 MOSFET.
Instance "m:x3:11": Length shorter than recommended for a level 1 MOSFET.
Instance "m:x3:11": Width narrower than recommended for a level 1 MOSFET.
Instance "m:x3:10": Length shorter than recommended for a level 1 MOSFET.
Instance "m:x3:10": Width narrower than recommended for a level 1 MOSFET.
Instance "m:x3:9": Length shorter than recommended for a level 1 MOSFET.
Instance "m:x3:9": Width narrower than recommended for a level 1 MOSFET.
Instance "m:x3:6": Length shorter than recommended for a level 1 MOSFET.
Instance "m:x3:6": Width narrower than recommended for a level 1 MOSFET.
Instance "m:x3:4": Length shorter than recommended for a level 1 MOSFET.
Instance "m:x3:4": Width narrower than recommended for a level 1 MOSFET.
Instance "m:x3:3": Length shorter than recommended for a level 1 MOSFET.
Instance "m:x3:3": Width narrower than recommended for a level 1 MOSFET.
Instance "m:x2:26": Length shorter than recommended for a level 1 MOSFET.
Instance "m:x2:25": Length shorter than recommended for a level 1 MOSFET.
Instance "m:x2:24": Length shorter than recommended for a level 1 MOSFET.
Instance "m:x2:24": Width narrower than recommended for a level 1 MOSFET.
Instance "m:x2:22": Length shorter than recommended for a level 1 MOSFET.
Instance "m:x2:22": Width narrower than recommended for a level 1 MOSFET.
Instance "m:x2:18": Length shorter than recommended for a level 1 MOSFET.
Instance "m:x2:18": Width narrower than recommended for a level 1 MOSFET.
Instance "m:x2:17": Length shorter than recommended for a level 1 MOSFET.
Instance "m:x2:17": Width narrower than recommended for a level 1 MOSFET.
Instance "m:x2:16": Length shorter than recommended for a level 1 MOSFET.
Instance "m:x2:16": Width narrower than recommended for a level 1 MOSFET.
Instance "m:x2:12": Length shorter than recommended for a level 1 MOSFET.
Instance "m:x2:12": Width narrower than recommended for a level 1 MOSFET.
Instance "m:x2:11": Length shorter than recommended for a level 1 MOSFET.
Instance "m:x2:11": Width narrower than recommended for a level 1 MOSFET.
Instance "m:x2:10": Length shorter than recommended for a level 1 MOSFET.
Instance "m:x2:10": Width narrower than recommended for a level 1 MOSFET.
Instance "m:x2:9": Length shorter than recommended for a level 1 MOSFET.
Instance "m:x2:9": Width narrower than recommended for a level 1 MOSFET.
Instance "m:x2:6": Length shorter than recommended for a level 1 MOSFET.
Instance "m:x2:6": Width narrower than recommended for a level 1 MOSFET.
Instance "m:x2:4": Length shorter than recommended for a level 1 MOSFET.
Instance "m:x2:4": Width narrower than recommended for a level 1 MOSFET.
Instance "m:x2:3": Length shorter than recommended for a level 1 MOSFET.
Instance "m:x2:3": Width narrower than recommended for a level 1 MOSFET.
Instance "m:x1:26": Length shorter than recommended for a level 1 MOSFET.
Instance "m:x1:25": Length shorter than recommended for a level 1 MOSFET.
Instance "m:x1:24": Length shorter than recommended for a level 1 MOSFET.
Instance "m:x1:24": Width narrower than recommended for a level 1 MOSFET.
Instance "m:x1:22": Length shorter than recommended for a level 1 MOSFET.
Instance "m:x1:22": Width narrower than recommended for a level 1 MOSFET.
Instance "m:x1:18": Length shorter than recommended for a level 1 MOSFET.
Instance "m:x1:18": Width narrower than recommended for a level 1 MOSFET.
Instance "m:x1:17": Length shorter than recommended for a level 1 MOSFET.
Instance "m:x1:17": Width narrower than recommended for a level 1 MOSFET.
Instance "m:x1:16": Length shorter than recommended for a level 1 MOSFET.
Instance "m:x1:16": Width narrower than recommended for a level 1 MOSFET.
Instance "m:x1:12": Length shorter than recommended for a level 1 MOSFET.
Instance "m:x1:12": Width narrower than recommended for a level 1 MOSFET.
Instance "m:x1:11": Length shorter than recommended for a level 1 MOSFET.
Instance "m:x1:11": Width narrower than recommended for a level 1 MOSFET.
Instance "m:x1:10": Length shorter than recommended for a level 1 MOSFET.
Instance "m:x1:10": Width narrower than recommended for a level 1 MOSFET.
Instance "m:x1:9": Length shorter than recommended for a level 1 MOSFET.
Instance "m:x1:9": Width narrower than recommended for a level 1 MOSFET.
Instance "m:x1:6": Length shorter than recommended for a level 1 MOSFET.
Instance "m:x1:6": Width narrower than recommended for a level 1 MOSFET.
Instance "m:x1:4": Length shorter than recommended for a level 1 MOSFET.
Instance "m:x1:4": Width narrower than recommended for a level 1 MOSFET.
Instance "m:x1:3": Length shorter than recommended for a level 1 MOSFET.
Instance "m:x1:3": Width narrower than recommended for a level 1 MOSFET.
Instance "m:x18:2": Length shorter than recommended for a level 1 MOSFET.
Instance "m:x18:2": Width narrower than recommended for a level 1 MOSFET.
Instance "m:x18:1": Length shorter than recommended for a level 1 MOSFET.
Instance "m:x18:1": Width narrower than recommended for a level 1 MOSFET.
Instance "m:x17:2": Length shorter than recommended for a level 1 MOSFET.
Instance "m:x17:2": Width narrower than recommended for a level 1 MOSFET.
Instance "m:x17:1": Length shorter than recommended for a level 1 MOSFET.
Instance "m:x17:1": Width narrower than recommended for a level 1 MOSFET.
Instance "m:x16:2": Length shorter than recommended for a level 1 MOSFET.
Instance "m:x16:2": Width narrower than recommended for a level 1 MOSFET.
Instance "m:x16:1": Length shorter than recommended for a level 1 MOSFET.
Instance "m:x16:1": Width narrower than recommended for a level 1 MOSFET.
Instance "m:x15:1": Length shorter than recommended for a level 1 MOSFET.
Instance "m:x15:1": Width narrower than recommended for a level 1 MOSFET.
Instance "m:x14:2": Length shorter than recommended for a level 1 MOSFET.
Instance "m:x14:2": Width narrower than recommended for a level 1 MOSFET.
Instance "m:x14:1": Length shorter than recommended for a level 1 MOSFET.
Instance "m:x14:1": Width narrower than recommended for a level 1 MOSFET.
Instance "m:x13:1": Length shorter than recommended for a level 1 MOSFET.
Instance "m:x13:1": Width narrower than recommended for a level 1 MOSFET.
Instance "m:x12:2": Length shorter than recommended for a level 1 MOSFET.
Instance "m:x12:2": Width narrower than recommended for a level 1 MOSFET.
Instance "m:x12:1": Length shorter than recommended for a level 1 MOSFET.
Instance "m:x12:1": Width narrower than recommended for a level 1 MOSFET.
Instance "m:x11:1": Length shorter than recommended for a level 1 MOSFET.
Instance "m:x11:1": Width narrower than recommended for a level 1 MOSFET.
Instance "m:x10:1": Length shorter than recommended for a level 1 MOSFET.
Instance "m:x10:1": Width narrower than recommended for a level 1 MOSFET.
Instance "m:x9:2": Length shorter than recommended for a level 1 MOSFET.
Instance "m:x9:2": Width narrower than recommended for a level 1 MOSFET.
Instance "m:x9:1": Length shorter than recommended for a level 1 MOSFET.
Instance "m:x9:1": Width narrower than recommended for a level 1 MOSFET.
Instance "m:x8:1": Length shorter than recommended for a level 1 MOSFET.
Instance "m:x8:1": Width narrower than recommended for a level 1 MOSFET.
Instance "m:x7:1": Length shorter than recommended for a level 1 MOSFET.
Instance "m:x7:1": Width narrower than recommended for a level 1 MOSFET.
Instance "m:x6:1": Length shorter than recommended for a level 1 MOSFET.
Instance "m:x6:1": Width narrower than recommended for a level 1 MOSFET.
Instance "m:x5:1": Length shorter than recommended for a level 1 MOSFET.
Instance "m:x5:1": Width narrower than recommended for a level 1 MOSFET.
Instance "m:x4:23": Length shorter than recommended for a level 1 MOSFET.
Instance "m:x4:23": Width narrower than recommended for a level 1 MOSFET.
Instance "m:x4:21": Length shorter than recommended for a level 1 MOSFET.
Instance "m:x4:21": Width narrower than recommended for a level 1 MOSFET.
Instance "m:x4:20": Length shorter than recommended for a level 1 MOSFET.
Instance "m:x4:20": Width narrower than recommended for a level 1 MOSFET.
Instance "m:x4:19": Length shorter than recommended for a level 1 MOSFET.
Instance "m:x4:19": Width narrower than recommended for a level 1 MOSFET.
Instance "m:x4:15": Length shorter than recommended for a level 1 MOSFET.
Instance "m:x4:15": Width narrower than recommended for a level 1 MOSFET.
Instance "m:x4:14": Length shorter than recommended for a level 1 MOSFET.
Instance "m:x4:14": Width narrower than recommended for a level 1 MOSFET.
Instance "m:x4:13": Length shorter than recommended for a level 1 MOSFET.
Instance "m:x4:13": Width narrower than recommended for a level 1 MOSFET.
Instance "m:x4:8": Length shorter than recommended for a level 1 MOSFET.
Instance "m:x4:8": Width narrower than recommended for a level 1 MOSFET.
Instance "m:x4:7": Length shorter than recommended for a level 1 MOSFET.
Instance "m:x4:7": Width narrower than recommended for a level 1 MOSFET.
Instance "m:x4:5": Length shorter than recommended for a level 1 MOSFET.
Instance "m:x4:5": Width narrower than recommended for a level 1 MOSFET.
Instance "m:x4:2": Length shorter than recommended for a level 1 MOSFET.
Instance "m:x4:2": Width narrower than recommended for a level 1 MOSFET.
Instance "m:x4:1": Length shorter than recommended for a level 1 MOSFET.
Instance "m:x4:1": Width narrower than recommended for a level 1 MOSFET.
Instance "m:x3:23": Length shorter than recommended for a level 1 MOSFET.
Instance "m:x3:23": Width narrower than recommended for a level 1 MOSFET.
Instance "m:x3:21": Length shorter than recommended for a level 1 MOSFET.
Instance "m:x3:21": Width narrower than recommended for a level 1 MOSFET.
Instance "m:x3:20": Length shorter than recommended for a level 1 MOSFET.
Instance "m:x3:20": Width narrower than recommended for a level 1 MOSFET.
Instance "m:x3:19": Length shorter than recommended for a level 1 MOSFET.
Instance "m:x3:19": Width narrower than recommended for a level 1 MOSFET.
Instance "m:x3:15": Length shorter than recommended for a level 1 MOSFET.
Instance "m:x3:15": Width narrower than recommended for a level 1 MOSFET.
Instance "m:x3:14": Length shorter than recommended for a level 1 MOSFET.
Instance "m:x3:14": Width narrower than recommended for a level 1 MOSFET.
Instance "m:x3:13": Length shorter than recommended for a level 1 MOSFET.
Instance "m:x3:13": Width narrower than recommended for a level 1 MOSFET.
Instance "m:x3:8": Length shorter than recommended for a level 1 MOSFET.
Instance "m:x3:8": Width narrower than recommended for a level 1 MOSFET.
Instance "m:x3:7": Length shorter than recommended for a level 1 MOSFET.
Instance "m:x3:7": Width narrower than recommended for a level 1 MOSFET.
Instance "m:x3:5": Length shorter than recommended for a level 1 MOSFET.
Instance "m:x3:5": Width narrower than recommended for a level 1 MOSFET.
Instance "m:x3:2": Length shorter than recommended for a level 1 MOSFET.
Instance "m:x3:2": Width narrower than recommended for a level 1 MOSFET.
Instance "m:x3:1": Length shorter than recommended for a level 1 MOSFET.
Instance "m:x3:1": Width narrower than recommended for a level 1 MOSFET.
Instance "m:x2:23": Length shorter than recommended for a level 1 MOSFET.
Instance "m:x2:23": Width narrower than recommended for a level 1 MOSFET.
Instance "m:x2:21": Length shorter than recommended for a level 1 MOSFET.
Instance "m:x2:21": Width narrower than recommended for a level 1 MOSFET.
Instance "m:x2:20": Length shorter than recommended for a level 1 MOSFET.
Instance "m:x2:20": Width narrower than recommended for a level 1 MOSFET.
Instance "m:x2:19": Length shorter than recommended for a level 1 MOSFET.
Instance "m:x2:19": Width narrower than recommended for a level 1 MOSFET.
Instance "m:x2:15": Length shorter than recommended for a level 1 MOSFET.
Instance "m:x2:15": Width narrower than recommended for a level 1 MOSFET.
Instance "m:x2:14": Length shorter than recommended for a level 1 MOSFET.
Instance "m:x2:14": Width narrower than recommended for a level 1 MOSFET.
Instance "m:x2:13": Length shorter than recommended for a level 1 MOSFET.
Instance "m:x2:13": Width narrower than recommended for a level 1 MOSFET.
Instance "m:x2:8": Length shorter than recommended for a level 1 MOSFET.
Instance "m:x2:8": Width narrower than recommended for a level 1 MOSFET.
Instance "m:x2:7": Length shorter than recommended for a level 1 MOSFET.
Instance "m:x2:7": Width narrower than recommended for a level 1 MOSFET.
Instance "m:x2:5": Length shorter than recommended for a level 1 MOSFET.
Instance "m:x2:5": Width narrower than recommended for a level 1 MOSFET.
Instance "m:x2:2": Length shorter than recommended for a level 1 MOSFET.
Instance "m:x2:2": Width narrower than recommended for a level 1 MOSFET.
Instance "m:x2:1": Length shorter than recommended for a level 1 MOSFET.
Instance "m:x2:1": Width narrower than recommended for a level 1 MOSFET.
Instance "m:x1:23": Length shorter than recommended for a level 1 MOSFET.
Instance "m:x1:23": Width narrower than recommended for a level 1 MOSFET.
Instance "m:x1:21": Length shorter than recommended for a level 1 MOSFET.
Instance "m:x1:21": Width narrower than recommended for a level 1 MOSFET.
Instance "m:x1:20": Length shorter than recommended for a level 1 MOSFET.
Instance "m:x1:20": Width narrower than recommended for a level 1 MOSFET.
Instance "m:x1:19": Length shorter than recommended for a level 1 MOSFET.
Instance "m:x1:19": Width narrower than recommended for a level 1 MOSFET.
Instance "m:x1:15": Length shorter than recommended for a level 1 MOSFET.
Instance "m:x1:15": Width narrower than recommended for a level 1 MOSFET.
Instance "m:x1:14": Length shorter than recommended for a level 1 MOSFET.
Instance "m:x1:14": Width narrower than recommended for a level 1 MOSFET.
Instance "m:x1:13": Length shorter than recommended for a level 1 MOSFET.
Instance "m:x1:13": Width narrower than recommended for a level 1 MOSFET.
Instance "m:x1:8": Length shorter than recommended for a level 1 MOSFET.
Instance "m:x1:8": Width narrower than recommended for a level 1 MOSFET.
Instance "m:x1:7": Length shorter than recommended for a level 1 MOSFET.
Instance "m:x1:7": Width narrower than recommended for a level 1 MOSFET.
Instance "m:x1:5": Length shorter than recommended for a level 1 MOSFET.
Instance "m:x1:5": Width narrower than recommended for a level 1 MOSFET.
Instance "m:x1:2": Length shorter than recommended for a level 1 MOSFET.
Instance "m:x1:2": Width narrower than recommended for a level 1 MOSFET.
Instance "m:x1:1": Length shorter than recommended for a level 1 MOSFET.
Instance "m:x1:1": Width narrower than recommended for a level 1 MOSFET.
Direct Newton iteration for .op point succeeded.
Heightened Def Con from 1.20136e-006 +++++++++++++++++++++++to 1.20144e-006
Heightened Def Con from 1.20144e-006 +++++++++++++++++++++++to 1.202e-006
Heightened Def Con from 1.202e-006 +++++++++++++++++++++++to 1.2021e-006
Heightened Def Con from 1.2021e-006 +++++++++++++++++++++++to 1.2031e-006
Heightened Def Con from 1.2031e-006 +++++++++++++++++++++++to 1.2041e-006
Heightened Def Con from 1.2041e-006 +++++++++++++++++++++++to 1.2051e-006
Heightened Def Con from 1.2051e-006 +++++++++++++++++++++++to 1.2061e-006
Heightened Def Con from 1.2061e-006 +++++++++++++++++++++++to 1.2071e-006
Heightened Def Con from 1.2071e-006 +++++++++++++++++++++++to 1.2081e-006
Heightened Def Con from 1.2081e-006 +++++++++++++++++++++++to 1.2091e-006
Heightened Def Con from 1.2091e-006 +++++++++++++++++++++++to 1.2101e-006
Heightened Def Con from 1.2101e-006 +++++++++++++++++++++++to 1.2111e-006
Heightened Def Con from 1.2111e-006 +++++++++++++++++++++++to 1.2121e-006
Heightened Def Con from 1.2121e-006 +++++++++++++++++++++++to 1.2131e-006
Heightened Def Con from 1.2131e-006 +++++++++++++++++++++++to 1.2141e-006
Heightened Def Con from 1.2141e-006 +++++++++++++++++++++++to 1.2151e-006
Heightened Def Con from 1.2151e-006 +++++++++++++++++++++++to 1.2161e-006
Heightened Def Con from 1.2161e-006 +++++++++++++++++++++++to 1.2171e-006
Heightened Def Con from 1.2171e-006 +++++++++++++++++++++++to 1.2181e-006
Heightened Def Con from 1.2181e-006 +++++++++++++++++++++++to 1.2191e-006
Heightened Def Con from 1.2191e-006 +++++++++++++++++++++++to 1.2201e-006
Heightened Def Con from 1.2201e-006 +++++++++++++++++++++++to 1.2211e-006
Heightened Def Con from 1.2211e-006 +++++++++++++++++++++++to 1.2221e-006
Heightened Def Con from 1.2221e-006 +++++++++++++++++++++++to 1.2231e-006
Heightened Def Con from 1.2231e-006 +++++++++++++++++++++++to 1.2241e-006
Heightened Def Con from 1.2241e-006 +++++++++++++++++++++++to 1.2251e-006
Heightened Def Con from 1.2251e-006 +++++++++++++++++++++++to 1.2261e-006
Heightened Def Con from 1.2261e-006 +++++++++++++++++++++++to 1.2271e-006
Heightened Def Con from 1.2271e-006 +++++++++++++++++++++++to 1.2281e-006
Heightened Def Con from 1.2281e-006 +++++++++++++++++++++++to 1.2291e-006
Heightened Def Con from 1.2291e-006 +++++++++++++++++++++++to 1.2301e-006
Heightened Def Con from 1.2301e-006 +++++++++++++++++++++++to 1.2311e-006
Heightened Def Con from 1.2311e-006 +++++++++++++++++++++++to 1.2321e-006
Heightened Def Con from 1.2321e-006 +++++++++++++++++++++++to 1.2331e-006
Heightened Def Con from 1.2331e-006 +++++++++++++++++++++++to 1.2341e-006
Heightened Def Con from 1.2341e-006 +++++++++++++++++++++++to 1.2351e-006
Heightened Def Con from 1.2351e-006 +++++++++++++++++++++++to 1.2361e-006
Heightened Def Con from 1.2361e-006 +++++++++++++++++++++++to 1.2371e-006
Heightened Def Con from 1.2371e-006 +++++++++++++++++++++++to 1.2381e-006
Heightened Def Con from 1.2381e-006 +++++++++++++++++++++++to 1.2391e-006
Heightened Def Con from 1.2391e-006 +++++++++++++++++++++++to 1.2401e-006
Heightened Def Con from 1.2401e-006 +++++++++++++++++++++++to 1.2411e-006
Heightened Def Con from 1.2411e-006 +++++++++++++++++++++++to 1.2421e-006
Heightened Def Con from 1.2421e-006 +++++++++++++++++++++++to 1.2431e-006
Heightened Def Con from 1.2431e-006 +++++++++++++++++++++++to 1.2441e-006
Heightened Def Con from 1.2441e-006 +++++++++++++++++++++++to 1.2451e-006
Heightened Def Con from 1.2451e-006 +++++++++++++++++++++++to 1.2461e-006
Heightened Def Con from 1.2461e-006 +++++++++++++++++++++++to 1.2471e-006
Heightened Def Con from 1.2471e-006 +++++++++++++++++++++++to 1.2481e-006
Heightened Def Con from 1.2481e-006 +++++++++++++++++++++++to 1.2491e-006
Heightened Def Con from 1.2491e-006 +++++++++++++++++++++++to 1.2501e-006
Heightened Def Con from 1.2501e-006 +++++++++++++++++++++++to 1.2511e-006
Heightened Def Con from 1.2511e-006 +++++++++++++++++++++++to 1.2521e-006
Heightened Def Con from 1.2521e-006 +++++++++++++++++++++++to 1.2531e-006
Heightened Def Con from 1.2531e-006 +++++++++++++++++++++++to 1.2541e-006
Heightened Def Con from 1.2541e-006 +++++++++++++++++++++++to 1.2551e-006
Heightened Def Con from 1.2551e-006 +++++++++++++++++++++++to 1.2561e-006
Heightened Def Con from 1.2561e-006 +++++++++++++++++++++++to 1.2571e-006
Heightened Def Con from 1.2571e-006 +++++++++++++++++++++++to 1.2581e-006
Heightened Def Con from 1.2581e-006 +++++++++++++++++++++++to 1.2591e-006
Heightened Def Con from 1.2591e-006 +++++++++++++++++++++++to 1.2601e-006
Heightened Def Con from 1.2601e-006 +++++++++++++++++++++++to 1.2611e-006
Heightened Def Con from 1.2611e-006 +++++++++++++++++++++++to 1.2621e-006
Heightened Def Con from 1.2621e-006 +++++++++++++++++++++++to 1.2631e-006
Heightened Def Con from 1.2631e-006 +++++++++++++++++++++++to 1.2641e-006
Heightened Def Con from 1.2641e-006 +++++++++++++++++++++++to 1.2651e-006
Heightened Def Con from 1.2651e-006 +++++++++++++++++++++++to 1.2661e-006
Heightened Def Con from 1.2661e-006 +++++++++++++++++++++++to 1.2671e-006
Heightened Def Con from 1.2671e-006 +++++++++++++++++++++++to 1.2681e-006
Heightened Def Con from 1.2681e-006 +++++++++++++++++++++++to 1.2691e-006
Heightened Def Con from 1.2691e-006 +++++++++++++++++++++++to 1.2701e-006
Heightened Def Con from 1.2701e-006 +++++++++++++++++++++++to 1.2711e-006
Heightened Def Con from 1.2711e-006 +++++++++++++++++++++++to 1.2721e-006
Heightened Def Con from 1.2721e-006 +++++++++++++++++++++++to 1.2731e-006
Heightened Def Con from 1.2731e-006 +++++++++++++++++++++++to 1.2741e-006
Heightened Def Con from 1.2741e-006 +++++++++++++++++++++++to 1.2751e-006
Heightened Def Con from 1.2751e-006 +++++++++++++++++++++++to 1.2761e-006
Heightened Def Con from 1.2761e-006 +++++++++++++++++++++++to 1.2771e-006
Heightened Def Con from 1.2771e-006 +++++++++++++++++++++++to 1.2781e-006
Heightened Def Con from 1.2781e-006 +++++++++++++++++++++++to 1.2791e-006
Heightened Def Con from 1.2791e-006 +++++++++++++++++++++++to 1.2801e-006
Heightened Def Con from 1.2801e-006 +++++++++++++++++++++++to 1.2811e-006
Heightened Def Con from 1.2811e-006 +++++++++++++++++++++++to 1.2821e-006
Heightened Def Con from 1.2821e-006 +++++++++++++++++++++++to 1.2831e-006
Heightened Def Con from 1.2831e-006 +++++++++++++++++++++++to 1.2841e-006
Heightened Def Con from 1.2841e-006 +++++++++++++++++++++++to 1.2851e-006
Heightened Def Con from 1.2851e-006 +++++++++++++++++++++++to 1.2861e-006
Heightened Def Con from 1.2861e-006 +++++++++++++++++++++++to 1.2871e-006
Heightened Def Con from 1.2871e-006 +++++++++++++++++++++++to 1.2881e-006
Heightened Def Con from 1.2881e-006 +++++++++++++++++++++++to 1.2891e-006
Heightened Def Con from 1.2891e-006 +++++++++++++++++++++++to 1.2901e-006
Heightened Def Con from 1.2901e-006 +++++++++++++++++++++++to 1.2911e-006
Heightened Def Con from 1.2911e-006 +++++++++++++++++++++++to 1.2921e-006
Heightened Def Con from 1.2921e-006 +++++++++++++++++++++++to 1.2931e-006
Heightened Def Con from 1.2931e-006 +++++++++++++++++++++++to 1.2941e-006
Heightened Def Con from 1.2941e-006 +++++++++++++++++++++++to 1.2951e-006
Heightened Def Con from 1.2951e-006 +++++++++++++++++++++++to 1.2961e-006
Heightened Def Con from 1.2961e-006 +++++++++++++++++++++++to 1.2971e-006
Heightened Def Con from 1.2971e-006 +++++++++++++++++++++++to 1.2981e-006
Heightened Def Con from 1.2981e-006 +++++++++++++++++++++++to 1.2991e-006
Heightened Def Con from 1.2991e-006 +++++++++++++++++++++++to 1.3001e-006
Heightened Def Con from 1.3001e-006 +++++++++++++++++++++++to 1.3011e-006
Heightened Def Con from 1.3011e-006 +++++++++++++++++++++++to 1.3021e-006
Heightened Def Con from 1.3021e-006 +++++++++++++++++++++++to 1.3031e-006
Heightened Def Con from 1.3031e-006 +++++++++++++++++++++++to 1.3041e-006
Heightened Def Con from 1.3041e-006 +++++++++++++++++++++++to 1.3051e-006
Heightened Def Con from 1.3051e-006 +++++++++++++++++++++++to 1.3061e-006
Heightened Def Con from 1.3061e-006 +++++++++++++++++++++++to 1.3071e-006
Heightened Def Con from 1.3071e-006 +++++++++++++++++++++++to 1.3081e-006
Heightened Def Con from 1.3081e-006 +++++++++++++++++++++++to 1.3091e-006
Heightened Def Con from 1.3091e-006 +++++++++++++++++++++++to 1.3101e-006
Heightened Def Con from 1.3101e-006 +++++++++++++++++++++++to 1.3111e-006
Heightened Def Con from 1.3111e-006 +++++++++++++++++++++++to 1.3121e-006
Heightened Def Con from 1.3121e-006 +++++++++++++++++++++++to 1.3131e-006
Heightened Def Con from 1.3131e-006 +++++++++++++++++++++++to 1.3141e-006
Heightened Def Con from 1.3141e-006 +++++++++++++++++++++++to 1.3151e-006
Heightened Def Con from 1.3151e-006 +++++++++++++++++++++++to 1.3161e-006
Heightened Def Con from 1.3161e-006 +++++++++++++++++++++++to 1.3171e-006
Heightened Def Con from 1.3171e-006 +++++++++++++++++++++++to 1.3181e-006
Heightened Def Con from 1.3181e-006 +++++++++++++++++++++++to 1.3191e-006
Heightened Def Con from 1.3191e-006 +++++++++++++++++++++++to 1.3201e-006
Heightened Def Con from 1.3201e-006 +++++++++++++++++++++++to 1.3211e-006
Heightened Def Con from 1.3211e-006 +++++++++++++++++++++++to 1.3221e-006
Heightened Def Con from 1.3221e-006 +++++++++++++++++++++++to 1.3231e-006
Heightened Def Con from 1.3231e-006 +++++++++++++++++++++++to 1.3241e-006
Heightened Def Con from 1.3241e-006 +++++++++++++++++++++++to 1.3251e-006
Heightened Def Con from 1.3251e-006 +++++++++++++++++++++++to 1.3261e-006
Heightened Def Con from 1.3261e-006 +++++++++++++++++++++++to 1.3271e-006
Heightened Def Con from 1.3271e-006 +++++++++++++++++++++++to 1.3281e-006
Heightened Def Con from 1.3281e-006 +++++++++++++++++++++++to 1.3291e-006
Heightened Def Con from 1.3291e-006 +++++++++++++++++++++++to 1.3301e-006
Heightened Def Con from 1.3301e-006 +++++++++++++++++++++++to 1.3311e-006
Heightened Def Con from 1.3311e-006 +++++++++++++++++++++++to 1.3321e-006
Heightened Def Con from 1.3321e-006 +++++++++++++++++++++++to 1.3331e-006
Heightened Def Con from 1.3331e-006 +++++++++++++++++++++++to 1.3341e-006
Heightened Def Con from 1.3341e-006 +++++++++++++++++++++++to 1.3351e-006
Heightened Def Con from 1.3351e-006 +++++++++++++++++++++++to 1.3361e-006
Heightened Def Con from 1.3361e-006 +++++++++++++++++++++++to 1.3371e-006
Heightened Def Con from 1.3371e-006 +++++++++++++++++++++++to 1.3381e-006
Heightened Def Con from 1.3381e-006 +++++++++++++++++++++++to 1.3391e-006
Heightened Def Con from 1.3391e-006 +++++++++++++++++++++++to 1.3401e-006
Heightened Def Con from 1.3401e-006 +++++++++++++++++++++++to 1.3411e-006
Heightened Def Con from 1.3411e-006 +++++++++++++++++++++++to 1.3421e-006
Heightened Def Con from 1.3421e-006 +++++++++++++++++++++++to 1.3431e-006
Heightened Def Con from 1.3431e-006 +++++++++++++++++++++++to 1.3441e-006
Heightened Def Con from 1.3441e-006 +++++++++++++++++++++++to 1.3451e-006
Heightened Def Con from 1.3451e-006 +++++++++++++++++++++++to 1.3461e-006
Heightened Def Con from 1.3461e-006 +++++++++++++++++++++++to 1.3471e-006
Heightened Def Con from 1.3471e-006 +++++++++++++++++++++++to 1.3481e-006
Heightened Def Con from 1.3481e-006 +++++++++++++++++++++++to 1.3491e-006
Heightened Def Con from 1.3491e-006 +++++++++++++++++++++++to 1.3501e-006
Heightened Def Con from 1.3501e-006 +++++++++++++++++++++++to 1.3511e-006
Heightened Def Con from 1.3511e-006 +++++++++++++++++++++++to 1.3521e-006
Heightened Def Con from 1.3521e-006 +++++++++++++++++++++++to 1.3531e-006
Heightened Def Con from 1.3531e-006 +++++++++++++++++++++++to 1.3541e-006
Heightened Def Con from 1.3541e-006 +++++++++++++++++++++++to 1.3551e-006
Heightened Def Con from 1.3551e-006 +++++++++++++++++++++++to 1.3561e-006
Heightened Def Con from 1.3561e-006 +++++++++++++++++++++++to 1.3571e-006
Heightened Def Con from 1.3571e-006 +++++++++++++++++++++++to 1.3581e-006
Heightened Def Con from 1.3581e-006 +++++++++++++++++++++++to 1.3591e-006
Heightened Def Con from 1.3591e-006 +++++++++++++++++++++++to 1.3601e-006
Heightened Def Con from 1.3601e-006 +++++++++++++++++++++++to 1.3611e-006
Heightened Def Con from 1.3611e-006 +++++++++++++++++++++++to 1.3621e-006
Heightened Def Con from 1.3621e-006 +++++++++++++++++++++++to 1.3631e-006
Heightened Def Con from 1.3631e-006 +++++++++++++++++++++++to 1.3641e-006
Heightened Def Con from 1.3641e-006 +++++++++++++++++++++++to 1.3651e-006
Heightened Def Con from 1.3651e-006 +++++++++++++++++++++++to 1.3661e-006
Heightened Def Con from 1.3661e-006 +++++++++++++++++++++++to 1.3671e-006
Heightened Def Con from 1.3671e-006 +++++++++++++++++++++++to 1.3681e-006
Heightened Def Con from 1.3681e-006 +++++++++++++++++++++++to 1.3691e-006
Heightened Def Con from 1.3691e-006 +++++++++++++++++++++++to 1.3701e-006
Heightened Def Con from 1.3701e-006 +++++++++++++++++++++++to 1.3711e-006
Heightened Def Con from 1.3711e-006 +++++++++++++++++++++++to 1.3721e-006
Heightened Def Con from 1.3721e-006 +++++++++++++++++++++++to 1.3731e-006
Heightened Def Con from 1.3731e-006 +++++++++++++++++++++++to 1.3741e-006
Heightened Def Con from 1.3741e-006 +++++++++++++++++++++++to 1.3751e-006
Heightened Def Con from 1.3751e-006 +++++++++++++++++++++++to 1.3761e-006
Heightened Def Con from 1.3761e-006 +++++++++++++++++++++++to 1.3771e-006
Heightened Def Con from 1.3771e-006 +++++++++++++++++++++++to 1.3781e-006
Heightened Def Con from 1.3781e-006 +++++++++++++++++++++++to 1.3791e-006
Heightened Def Con from 1.3791e-006 +++++++++++++++++++++++to 1.3801e-006
Heightened Def Con from 1.3801e-006 +++++++++++++++++++++++to 1.3811e-006
Heightened Def Con from 1.3811e-006 +++++++++++++++++++++++to 1.3821e-006
Heightened Def Con from 1.3821e-006 +++++++++++++++++++++++to 1.3831e-006
Heightened Def Con from 1.3831e-006 +++++++++++++++++++++++to 1.3841e-006
Heightened Def Con from 1.3841e-006 +++++++++++++++++++++++to 1.3851e-006
Heightened Def Con from 1.3851e-006 +++++++++++++++++++++++to 1.3861e-006
Heightened Def Con from 1.3861e-006 +++++++++++++++++++++++to 1.3871e-006
Heightened Def Con from 1.3871e-006 +++++++++++++++++++++++to 1.3881e-006
Heightened Def Con from 1.3881e-006 +++++++++++++++++++++++to 1.3891e-006
Heightened Def Con from 1.3891e-006 +++++++++++++++++++++++to 1.3901e-006
Heightened Def Con from 1.3901e-006 +++++++++++++++++++++++to 1.3911e-006
Heightened Def Con from 1.3911e-006 +++++++++++++++++++++++to 1.3921e-006
Heightened Def Con from 1.3921e-006 +++++++++++++++++++++++to 1.3931e-006
Heightened Def Con from 1.3931e-006 +++++++++++++++++++++++to 1.3941e-006
Heightened Def Con from 1.3941e-006 +++++++++++++++++++++++to 1.3951e-006
Heightened Def Con from 1.3951e-006 +++++++++++++++++++++++to 1.3961e-006
Heightened Def Con from 1.3961e-006 +++++++++++++++++++++++to 1.3971e-006
Heightened Def Con from 1.3971e-006 +++++++++++++++++++++++to 1.3981e-006
Heightened Def Con from 1.3981e-006 +++++++++++++++++++++++to 1.3991e-006
Heightened Def Con from 1.3991e-006 +++++++++++++++++++++++to 1.4001e-006
Heightened Def Con from 1.4001e-006 +++++++++++++++++++++++to 1.4011e-006
Heightened Def Con from 1.4011e-006 +++++++++++++++++++++++to 1.4021e-006
Heightened Def Con from 1.4021e-006 +++++++++++++++++++++++to 1.4031e-006
Heightened Def Con from 1.4031e-006 +++++++++++++++++++++++to 1.4041e-006
Heightened Def Con from 1.4041e-006 +++++++++++++++++++++++to 1.4051e-006
Heightened Def Con from 1.4051e-006 +++++++++++++++++++++++to 1.4061e-006
Heightened Def Con from 1.4061e-006 +++++++++++++++++++++++to 1.4071e-006
Heightened Def Con from 1.4071e-006 +++++++++++++++++++++++to 1.4081e-006
Heightened Def Con from 1.4081e-006 +++++++++++++++++++++++to 1.4091e-006
Heightened Def Con from 1.4091e-006 +++++++++++++++++++++++to 1.4101e-006
Heightened Def Con from 1.4101e-006 +++++++++++++++++++++++to 1.4111e-006
Heightened Def Con from 1.4111e-006 +++++++++++++++++++++++to 1.4121e-006
Heightened Def Con from 1.4121e-006 +++++++++++++++++++++++to 1.4131e-006
Heightened Def Con from 1.4131e-006 +++++++++++++++++++++++to 1.4141e-006
Heightened Def Con from 1.4141e-006 +++++++++++++++++++++++to 1.4151e-006
Heightened Def Con from 1.4151e-006 +++++++++++++++++++++++to 1.4161e-006
Heightened Def Con from 1.4161e-006 +++++++++++++++++++++++to 1.4171e-006
Heightened Def Con from 1.4171e-006 +++++++++++++++++++++++to 1.4181e-006
Heightened Def Con from 1.4181e-006 +++++++++++++++++++++++to 1.4191e-006
Heightened Def Con from 1.4191e-006 +++++++++++++++++++++++to 1.4201e-006
Heightened Def Con from 1.4201e-006 +++++++++++++++++++++++to 1.4211e-006
Heightened Def Con from 1.4211e-006 +++++++++++++++++++++++to 1.4221e-006
Heightened Def Con from 1.4221e-006 +++++++++++++++++++++++to 1.4231e-006
Heightened Def Con from 1.4231e-006 +++++++++++++++++++++++to 1.4241e-006
Heightened Def Con from 1.4241e-006 +++++++++++++++++++++++to 1.4251e-006
Heightened Def Con from 1.4251e-006 +++++++++++++++++++++++to 1.4261e-006
Heightened Def Con from 1.4261e-006 +++++++++++++++++++++++to 1.4271e-006
Heightened Def Con from 1.4271e-006 +++++++++++++++++++++++to 1.4281e-006
Heightened Def Con from 1.4281e-006 +++++++++++++++++++++++to 1.4291e-006
Heightened Def Con from 1.4291e-006 +++++++++++++++++++++++to 1.4301e-006
Heightened Def Con from 1.4301e-006 +++++++++++++++++++++++to 1.4311e-006
Heightened Def Con from 1.4311e-006 +++++++++++++++++++++++to 1.4321e-006
Heightened Def Con from 1.4321e-006 +++++++++++++++++++++++to 1.4331e-006
Heightened Def Con from 1.4331e-006 +++++++++++++++++++++++to 1.4341e-006
Heightened Def Con from 1.4341e-006 +++++++++++++++++++++++to 1.4351e-006
Heightened Def Con from 1.4351e-006 +++++++++++++++++++++++to 1.4361e-006
Heightened Def Con from 1.4361e-006 +++++++++++++++++++++++to 1.4371e-006
Heightened Def Con from 1.4371e-006 +++++++++++++++++++++++to 1.4381e-006
Heightened Def Con from 1.4381e-006 +++++++++++++++++++++++to 1.4391e-006
Heightened Def Con from 1.4391e-006 +++++++++++++++++++++++to 1.4401e-006
Heightened Def Con from 1.4401e-006 +++++++++++++++++++++++to 1.4411e-006
Heightened Def Con from 1.4411e-006 +++++++++++++++++++++++to 1.4421e-006
Heightened Def Con from 1.4421e-006 +++++++++++++++++++++++to 1.4431e-006
Heightened Def Con from 1.4431e-006 +++++++++++++++++++++++to 1.4441e-006
Heightened Def Con from 1.4441e-006 +++++++++++++++++++++++to 1.4451e-006
Heightened Def Con from 1.4451e-006 +++++++++++++++++++++++to 1.4461e-006
Heightened Def Con from 1.4461e-006 +++++++++++++++++++++++to 1.4471e-006
Heightened Def Con from 1.4471e-006 +++++++++++++++++++++++to 1.4481e-006
Heightened Def Con from 1.4481e-006 +++++++++++++++++++++++to 1.4491e-006
Heightened Def Con from 1.4491e-006 +++++++++++++++++++++++to 1.4501e-006
Heightened Def Con from 1.4501e-006 +++++++++++++++++++++++to 1.4511e-006
Heightened Def Con from 1.4511e-006 +++++++++++++++++++++++to 1.4521e-006
Heightened Def Con from 1.4521e-006 +++++++++++++++++++++++to 1.4531e-006
Heightened Def Con from 1.4531e-006 +++++++++++++++++++++++to 1.4541e-006
Heightened Def Con from 1.4541e-006 +++++++++++++++++++++++to 1.4551e-006
Heightened Def Con from 1.4551e-006 +++++++++++++++++++++++to 1.4561e-006
Heightened Def Con from 1.4561e-006 +++++++++++++++++++++++to 1.4571e-006
Heightened Def Con from 1.4571e-006 +++++++++++++++++++++++to 1.4581e-006
Heightened Def Con from 1.4581e-006 +++++++++++++++++++++++to 1.4591e-006
Heightened Def Con from 1.4591e-006 +++++++++++++++++++++++to 1.4601e-006
Heightened Def Con from 1.4601e-006 +++++++++++++++++++++++to 1.4611e-006
Heightened Def Con from 1.4611e-006 +++++++++++++++++++++++to 1.4621e-006
Heightened Def Con from 1.4621e-006 +++++++++++++++++++++++to 1.4631e-006
Heightened Def Con from 1.4631e-006 +++++++++++++++++++++++to 1.4641e-006
Heightened Def Con from 1.4641e-006 +++++++++++++++++++++++to 1.4651e-006
Heightened Def Con from 1.4651e-006 +++++++++++++++++++++++to 1.4661e-006
Heightened Def Con from 1.4661e-006 +++++++++++++++++++++++to 1.4671e-006
Heightened Def Con from 1.4671e-006 +++++++++++++++++++++++to 1.4681e-006
Heightened Def Con from 1.4681e-006 +++++++++++++++++++++++to 1.4691e-006
Heightened Def Con from 1.4691e-006 +++++++++++++++++++++++to 1.4701e-006
Heightened Def Con from 1.4701e-006 +++++++++++++++++++++++to 1.4711e-006
Heightened Def Con from 1.4711e-006 +++++++++++++++++++++++to 1.4721e-006
Heightened Def Con from 1.4721e-006 +++++++++++++++++++++++to 1.4731e-006
Heightened Def Con from 1.4731e-006 +++++++++++++++++++++++to 1.4741e-006
Heightened Def Con from 1.4741e-006 +++++++++++++++++++++++to 1.4751e-006
Heightened Def Con from 1.4751e-006 +++++++++++++++++++++++to 1.4761e-006
Heightened Def Con from 1.4761e-006 +++++++++++++++++++++++to 1.4771e-006
Heightened Def Con from 1.4771e-006 +++++++++++++++++++++++to 1.4781e-006
Heightened Def Con from 1.4781e-006 +++++++++++++++++++++++to 1.4791e-006
Heightened Def Con from 1.4791e-006 +++++++++++++++++++++++to 1.4801e-006
Heightened Def Con from 1.4801e-006 +++++++++++++++++++++++to 1.4811e-006
Heightened Def Con from 1.4811e-006 +++++++++++++++++++++++to 1.4821e-006
Heightened Def Con from 1.4821e-006 +++++++++++++++++++++++to 1.4831e-006
Heightened Def Con from 1.4831e-006 +++++++++++++++++++++++to 1.4841e-006
Heightened Def Con from 1.4841e-006 +++++++++++++++++++++++to 1.4851e-006
Heightened Def Con from 1.4851e-006 +++++++++++++++++++++++to 1.4861e-006
Heightened Def Con from 1.4861e-006 +++++++++++++++++++++++to 1.4871e-006
Heightened Def Con from 1.4871e-006 +++++++++++++++++++++++to 1.4881e-006
Heightened Def Con from 1.4881e-006 +++++++++++++++++++++++to 1.4891e-006
Heightened Def Con from 1.4891e-006 +++++++++++++++++++++++to 1.4901e-006
Heightened Def Con from 1.4901e-006 +++++++++++++++++++++++to 1.4911e-006
Heightened Def Con from 1.4911e-006 +++++++++++++++++++++++to 1.4921e-006
Heightened Def Con from 1.4921e-006 +++++++++++++++++++++++to 1.4931e-006
Heightened Def Con from 1.4931e-006 +++++++++++++++++++++++to 1.4941e-006
Heightened Def Con from 1.4941e-006 +++++++++++++++++++++++to 1.4951e-006
Heightened Def Con from 1.4951e-006 +++++++++++++++++++++++to 1.4961e-006
Heightened Def Con from 1.4961e-006 +++++++++++++++++++++++to 1.4971e-006
Heightened Def Con from 1.4971e-006 +++++++++++++++++++++++to 1.4981e-006
Heightened Def Con from 1.4981e-006 +++++++++++++++++++++++to 1.4991e-006
Heightened Def Con from 1.4991e-006 +++++++++++++++++++++++to 1.5e-006
Heightened Def Con from 1.5e-006 +++++++++++++++++++++++to 1.5001e-006
Heightened Def Con from 1.5001e-006 +++++++++++++++++++++++to 1.5011e-006
Heightened Def Con from 1.5011e-006 +++++++++++++++++++++++to 1.5021e-006
Heightened Def Con from 1.5021e-006 +++++++++++++++++++++++to 1.5031e-006
Heightened Def Con from 1.5031e-006 +++++++++++++++++++++++to 1.5041e-006
Heightened Def Con from 1.5041e-006 +++++++++++++++++++++++to 1.5051e-006
Heightened Def Con from 1.5051e-006 +++++++++++++++++++++++to 1.5061e-006
Heightened Def Con from 1.5061e-006 +++++++++++++++++++++++to 1.5071e-006
Heightened Def Con from 1.5071e-006 +++++++++++++++++++++++to 1.5081e-006
Heightened Def Con from 1.5081e-006 +++++++++++++++++++++++to 1.5091e-006
Heightened Def Con from 1.5091e-006 +++++++++++++++++++++++to 1.5101e-006
Heightened Def Con from 1.5101e-006 +++++++++++++++++++++++to 1.5111e-006
Heightened Def Con from 1.5111e-006 +++++++++++++++++++++++to 1.5121e-006
Heightened Def Con from 1.5121e-006 +++++++++++++++++++++++to 1.5131e-006
Heightened Def Con from 1.5131e-006 +++++++++++++++++++++++to 1.5141e-006
Heightened Def Con from 1.5141e-006 +++++++++++++++++++++++to 1.5151e-006
Heightened Def Con from 1.5151e-006 +++++++++++++++++++++++to 1.5161e-006
Heightened Def Con from 1.5161e-006 +++++++++++++++++++++++to 1.5171e-006
Heightened Def Con from 1.5171e-006 +++++++++++++++++++++++to 1.5181e-006
Heightened Def Con from 1.5181e-006 +++++++++++++++++++++++to 1.5191e-006
Heightened Def Con from 1.5191e-006 +++++++++++++++++++++++to 1.5201e-006
Heightened Def Con from 1.5201e-006 +++++++++++++++++++++++to 1.5211e-006
Heightened Def Con from 1.5211e-006 +++++++++++++++++++++++to 1.5221e-006
Heightened Def Con from 1.5221e-006 +++++++++++++++++++++++to 1.5231e-006
Heightened Def Con from 1.5231e-006 +++++++++++++++++++++++to 1.5241e-006
Heightened Def Con from 1.5241e-006 +++++++++++++++++++++++to 1.5251e-006
Heightened Def Con from 1.5251e-006 +++++++++++++++++++++++to 1.5261e-006
Heightened Def Con from 1.5261e-006 +++++++++++++++++++++++to 1.5271e-006
Heightened Def Con from 1.5271e-006 +++++++++++++++++++++++to 1.5281e-006
Heightened Def Con from 1.5281e-006 +++++++++++++++++++++++to 1.5291e-006
Heightened Def Con from 1.5291e-006 +++++++++++++++++++++++to 1.5301e-006
Heightened Def Con from 1.5301e-006 +++++++++++++++++++++++to 1.5311e-006
Heightened Def Con from 1.5311e-006 +++++++++++++++++++++++to 1.5321e-006
Heightened Def Con from 1.5321e-006 +++++++++++++++++++++++to 1.5331e-006
Heightened Def Con from 1.5331e-006 +++++++++++++++++++++++to 1.5341e-006
Heightened Def Con from 1.5341e-006 +++++++++++++++++++++++to 1.5351e-006
Heightened Def Con from 1.5351e-006 +++++++++++++++++++++++to 1.5361e-006
Heightened Def Con from 1.5361e-006 +++++++++++++++++++++++to 1.5371e-006
Heightened Def Con from 1.5371e-006 +++++++++++++++++++++++to 1.5381e-006
Heightened Def Con from 1.5381e-006 +++++++++++++++++++++++to 1.5391e-006
Heightened Def Con from 1.5391e-006 +++++++++++++++++++++++to 1.5401e-006
Heightened Def Con from 1.5401e-006 +++++++++++++++++++++++to 1.5411e-006
Heightened Def Con from 1.5411e-006 +++++++++++++++++++++++to 1.5421e-006
Heightened Def Con from 1.5421e-006 +++++++++++++++++++++++to 1.5431e-006
Heightened Def Con from 1.5431e-006 +++++++++++++++++++++++to 1.5441e-006
Heightened Def Con from 1.5441e-006 +++++++++++++++++++++++to 1.5451e-006
Heightened Def Con from 1.5451e-006 +++++++++++++++++++++++to 1.5461e-006
Heightened Def Con from 1.5461e-006 +++++++++++++++++++++++to 1.5471e-006
Heightened Def Con from 1.5471e-006 +++++++++++++++++++++++to 1.5481e-006
Heightened Def Con from 1.5481e-006 +++++++++++++++++++++++to 1.5491e-006
Heightened Def Con from 1.5491e-006 +++++++++++++++++++++++to 1.55e-006
Heightened Def Con from 1.55e-006 +++++++++++++++++++++++to 1.5501e-006
Heightened Def Con from 1.5501e-006 +++++++++++++++++++++++to 1.5511e-006
Heightened Def Con from 1.5511e-006 +++++++++++++++++++++++to 1.5521e-006
Heightened Def Con from 1.5521e-006 +++++++++++++++++++++++to 1.5531e-006
Heightened Def Con from 1.5531e-006 +++++++++++++++++++++++to 1.5541e-006
Heightened Def Con from 1.5541e-006 +++++++++++++++++++++++to 1.5551e-006
Heightened Def Con from 1.5551e-006 +++++++++++++++++++++++to 1.5561e-006
Heightened Def Con from 1.5561e-006 +++++++++++++++++++++++to 1.5571e-006
Heightened Def Con from 1.5571e-006 +++++++++++++++++++++++to 1.5581e-006
Heightened Def Con from 1.5581e-006 +++++++++++++++++++++++to 1.5591e-006
Heightened Def Con from 1.5591e-006 +++++++++++++++++++++++to 1.5601e-006
Heightened Def Con from 1.5601e-006 +++++++++++++++++++++++to 1.5611e-006
Heightened Def Con from 1.5611e-006 +++++++++++++++++++++++to 1.5621e-006
Heightened Def Con from 1.5621e-006 +++++++++++++++++++++++to 1.5631e-006
Heightened Def Con from 1.5631e-006 +++++++++++++++++++++++to 1.5641e-006
Heightened Def Con from 1.5641e-006 +++++++++++++++++++++++to 1.5651e-006
Heightened Def Con from 1.5651e-006 +++++++++++++++++++++++to 1.5661e-006
Heightened Def Con from 1.5661e-006 +++++++++++++++++++++++to 1.5671e-006
Heightened Def Con from 1.5671e-006 +++++++++++++++++++++++to 1.5681e-006
Heightened Def Con from 1.5681e-006 +++++++++++++++++++++++to 1.5691e-006
Heightened Def Con from 1.5691e-006 +++++++++++++++++++++++to 1.5701e-006
Heightened Def Con from 1.5701e-006 +++++++++++++++++++++++to 1.5711e-006
Heightened Def Con from 1.5711e-006 +++++++++++++++++++++++to 1.5721e-006
Heightened Def Con from 1.5721e-006 +++++++++++++++++++++++to 1.5731e-006
Heightened Def Con from 1.5731e-006 +++++++++++++++++++++++to 1.5741e-006
Heightened Def Con from 1.5741e-006 +++++++++++++++++++++++to 1.5751e-006
Heightened Def Con from 1.5751e-006 +++++++++++++++++++++++to 1.5761e-006
Heightened Def Con from 1.5761e-006 +++++++++++++++++++++++to 1.5771e-006
Heightened Def Con from 1.5771e-006 +++++++++++++++++++++++to 1.5781e-006
Heightened Def Con from 1.5781e-006 +++++++++++++++++++++++to 1.5791e-006
Heightened Def Con from 1.5791e-006 +++++++++++++++++++++++to 1.5801e-006
Heightened Def Con from 1.5801e-006 +++++++++++++++++++++++to 1.5811e-006
Heightened Def Con from 1.5811e-006 +++++++++++++++++++++++to 1.5821e-006
Heightened Def Con from 1.5821e-006 +++++++++++++++++++++++to 1.5831e-006
Heightened Def Con from 1.5831e-006 +++++++++++++++++++++++to 1.5841e-006
Heightened Def Con from 1.5841e-006 +++++++++++++++++++++++to 1.5851e-006
Heightened Def Con from 1.5851e-006 +++++++++++++++++++++++to 1.5861e-006
Heightened Def Con from 1.5861e-006 +++++++++++++++++++++++to 1.5871e-006
Heightened Def Con from 1.5871e-006 +++++++++++++++++++++++to 1.5881e-006
Heightened Def Con from 1.5881e-006 +++++++++++++++++++++++to 1.5891e-006
Heightened Def Con from 1.5891e-006 +++++++++++++++++++++++to 1.5901e-006
Heightened Def Con from 1.5901e-006 +++++++++++++++++++++++to 1.5911e-006
Heightened Def Con from 1.5911e-006 +++++++++++++++++++++++to 1.5921e-006
Heightened Def Con from 1.5921e-006 +++++++++++++++++++++++to 1.5931e-006
Heightened Def Con from 1.5931e-006 +++++++++++++++++++++++to 1.5941e-006
Heightened Def Con from 1.5941e-006 +++++++++++++++++++++++to 1.5951e-006
Heightened Def Con from 1.5951e-006 +++++++++++++++++++++++to 1.5961e-006
Heightened Def Con from 1.5961e-006 +++++++++++++++++++++++to 1.5971e-006
Heightened Def Con from 1.5971e-006 +++++++++++++++++++++++to 1.5981e-006
Heightened Def Con from 1.5981e-006 +++++++++++++++++++++++to 1.5991e-006
Heightened Def Con from 1.5991e-006 +++++++++++++++++++++++to 1.6001e-006
Heightened Def Con from 1.6001e-006 +++++++++++++++++++++++to 1.6011e-006
Heightened Def Con from 1.6011e-006 +++++++++++++++++++++++to 1.6021e-006
Heightened Def Con from 1.6021e-006 +++++++++++++++++++++++to 1.6031e-006
Heightened Def Con from 1.6031e-006 +++++++++++++++++++++++to 1.6041e-006
Heightened Def Con from 1.6041e-006 +++++++++++++++++++++++to 1.6051e-006
Heightened Def Con from 1.6051e-006 +++++++++++++++++++++++to 1.6061e-006
Heightened Def Con from 1.6061e-006 +++++++++++++++++++++++to 1.6071e-006
Heightened Def Con from 1.6071e-006 +++++++++++++++++++++++to 1.6081e-006
Heightened Def Con from 1.6081e-006 +++++++++++++++++++++++to 1.6091e-006
Heightened Def Con from 1.6091e-006 +++++++++++++++++++++++to 1.6101e-006
Heightened Def Con from 1.6101e-006 +++++++++++++++++++++++to 1.6111e-006
Heightened Def Con from 1.6111e-006 +++++++++++++++++++++++to 1.6121e-006
Heightened Def Con from 1.6121e-006 +++++++++++++++++++++++to 1.6131e-006
Heightened Def Con from 1.6131e-006 +++++++++++++++++++++++to 1.6141e-006
Heightened Def Con from 1.6141e-006 +++++++++++++++++++++++to 1.6151e-006
Heightened Def Con from 1.6151e-006 +++++++++++++++++++++++to 1.6161e-006
Heightened Def Con from 1.6161e-006 +++++++++++++++++++++++to 1.6171e-006
Heightened Def Con from 1.6171e-006 +++++++++++++++++++++++to 1.6181e-006
Heightened Def Con from 1.6181e-006 +++++++++++++++++++++++to 1.6191e-006
Heightened Def Con from 1.6191e-006 +++++++++++++++++++++++to 1.6201e-006
Heightened Def Con from 1.6201e-006 +++++++++++++++++++++++to 1.6211e-006
Heightened Def Con from 1.6211e-006 +++++++++++++++++++++++to 1.6221e-006
Heightened Def Con from 1.6221e-006 +++++++++++++++++++++++to 1.6231e-006
Heightened Def Con from 1.6231e-006 +++++++++++++++++++++++to 1.6241e-006
Heightened Def Con from 1.6241e-006 +++++++++++++++++++++++to 1.6251e-006
Heightened Def Con from 1.6251e-006 +++++++++++++++++++++++to 1.6261e-006
Heightened Def Con from 1.6261e-006 +++++++++++++++++++++++to 1.6271e-006
Heightened Def Con from 1.6271e-006 +++++++++++++++++++++++to 1.6281e-006
Heightened Def Con from 1.6281e-006 +++++++++++++++++++++++to 1.6291e-006
Heightened Def Con from 1.6291e-006 +++++++++++++++++++++++to 1.6301e-006
Heightened Def Con from 1.6301e-006 +++++++++++++++++++++++to 1.6311e-006
Heightened Def Con from 1.6311e-006 +++++++++++++++++++++++to 1.6321e-006
Heightened Def Con from 1.6321e-006 +++++++++++++++++++++++to 1.6331e-006
Heightened Def Con from 1.6331e-006 +++++++++++++++++++++++to 1.6341e-006
Heightened Def Con from 1.6341e-006 +++++++++++++++++++++++to 1.6351e-006
Heightened Def Con from 1.6351e-006 +++++++++++++++++++++++to 1.6361e-006
Heightened Def Con from 1.6361e-006 +++++++++++++++++++++++to 1.6371e-006
Heightened Def Con from 1.6371e-006 +++++++++++++++++++++++to 1.6381e-006
Heightened Def Con from 1.6381e-006 +++++++++++++++++++++++to 1.6391e-006
Heightened Def Con from 1.6391e-006 +++++++++++++++++++++++to 1.6401e-006
Heightened Def Con from 1.6401e-006 +++++++++++++++++++++++to 1.6411e-006
Heightened Def Con from 1.6411e-006 +++++++++++++++++++++++to 1.6421e-006
Heightened Def Con from 1.6421e-006 +++++++++++++++++++++++to 1.6431e-006
Heightened Def Con from 1.6431e-006 +++++++++++++++++++++++to 1.6441e-006
Heightened Def Con from 1.6441e-006 +++++++++++++++++++++++to 1.6451e-006
Heightened Def Con from 1.6451e-006 +++++++++++++++++++++++to 1.6461e-006
Heightened Def Con from 1.6461e-006 +++++++++++++++++++++++to 1.6471e-006
Heightened Def Con from 1.6471e-006 +++++++++++++++++++++++to 1.6481e-006
Heightened Def Con from 1.6481e-006 +++++++++++++++++++++++to 1.6491e-006
Heightened Def Con from 1.6491e-006 +++++++++++++++++++++++to 1.6501e-006
Heightened Def Con from 1.6501e-006 +++++++++++++++++++++++to 1.6511e-006
Heightened Def Con from 1.6511e-006 +++++++++++++++++++++++to 1.6521e-006
Heightened Def Con from 1.6521e-006 +++++++++++++++++++++++to 1.6531e-006
Heightened Def Con from 1.6531e-006 +++++++++++++++++++++++to 1.6541e-006
Heightened Def Con from 1.6541e-006 +++++++++++++++++++++++to 1.6551e-006
Heightened Def Con from 1.6551e-006 +++++++++++++++++++++++to 1.6561e-006
Heightened Def Con from 1.6561e-006 +++++++++++++++++++++++to 1.6571e-006
Heightened Def Con from 1.6571e-006 +++++++++++++++++++++++to 1.6581e-006
Heightened Def Con from 1.6581e-006 +++++++++++++++++++++++to 1.6591e-006
Heightened Def Con from 1.6591e-006 +++++++++++++++++++++++to 1.6601e-006
Heightened Def Con from 1.6601e-006 +++++++++++++++++++++++to 1.6611e-006
Heightened Def Con from 1.6611e-006 +++++++++++++++++++++++to 1.6621e-006
Heightened Def Con from 1.6621e-006 +++++++++++++++++++++++to 1.6631e-006
Heightened Def Con from 1.6631e-006 +++++++++++++++++++++++to 1.6641e-006
Heightened Def Con from 1.6641e-006 +++++++++++++++++++++++to 1.6651e-006
Heightened Def Con from 1.6651e-006 +++++++++++++++++++++++to 1.6661e-006
Heightened Def Con from 1.6661e-006 +++++++++++++++++++++++to 1.6671e-006
Heightened Def Con from 1.6671e-006 +++++++++++++++++++++++to 1.6681e-006
Heightened Def Con from 1.6681e-006 +++++++++++++++++++++++to 1.6691e-006
Heightened Def Con from 1.6691e-006 +++++++++++++++++++++++to 1.6701e-006
Heightened Def Con from 1.6701e-006 +++++++++++++++++++++++to 1.6711e-006
Heightened Def Con from 1.6711e-006 +++++++++++++++++++++++to 1.6721e-006
Heightened Def Con from 1.6721e-006 +++++++++++++++++++++++to 1.6731e-006
Heightened Def Con from 1.6731e-006 +++++++++++++++++++++++to 1.6741e-006
Heightened Def Con from 1.6741e-006 +++++++++++++++++++++++to 1.6751e-006
Heightened Def Con from 1.6751e-006 +++++++++++++++++++++++to 1.6761e-006
Heightened Def Con from 1.6761e-006 +++++++++++++++++++++++to 1.6771e-006
Heightened Def Con from 1.6771e-006 +++++++++++++++++++++++to 1.6781e-006
Heightened Def Con from 1.6781e-006 +++++++++++++++++++++++to 1.6791e-006
Heightened Def Con from 1.6791e-006 +++++++++++++++++++++++to 1.6801e-006
Heightened Def Con from 1.6801e-006 +++++++++++++++++++++++to 1.6811e-006
Heightened Def Con from 1.6811e-006 +++++++++++++++++++++++to 1.6821e-006
Heightened Def Con from 1.6821e-006 +++++++++++++++++++++++to 1.6831e-006
Heightened Def Con from 1.6831e-006 +++++++++++++++++++++++to 1.6841e-006
Heightened Def Con from 1.6841e-006 +++++++++++++++++++++++to 1.6851e-006
Heightened Def Con from 1.6851e-006 +++++++++++++++++++++++to 1.6861e-006
Heightened Def Con from 1.6861e-006 +++++++++++++++++++++++to 1.6871e-006
Heightened Def Con from 1.6871e-006 +++++++++++++++++++++++to 1.6881e-006
Heightened Def Con from 1.6881e-006 +++++++++++++++++++++++to 1.6891e-006
Heightened Def Con from 1.6891e-006 +++++++++++++++++++++++to 1.6901e-006
Heightened Def Con from 1.6901e-006 +++++++++++++++++++++++to 1.6911e-006
Heightened Def Con from 1.6911e-006 +++++++++++++++++++++++to 1.6921e-006
Heightened Def Con from 1.6921e-006 +++++++++++++++++++++++to 1.6931e-006
Heightened Def Con from 1.6931e-006 +++++++++++++++++++++++to 1.6941e-006
Heightened Def Con from 1.6941e-006 +++++++++++++++++++++++to 1.6951e-006
Heightened Def Con from 1.6951e-006 +++++++++++++++++++++++to 1.6961e-006
Heightened Def Con from 1.6961e-006 +++++++++++++++++++++++to 1.6971e-006
Heightened Def Con from 1.6971e-006 +++++++++++++++++++++++to 1.6981e-006
Heightened Def Con from 1.6981e-006 +++++++++++++++++++++++to 1.6991e-006
Heightened Def Con from 1.6991e-006 +++++++++++++++++++++++to 1.7001e-006
Heightened Def Con from 1.7001e-006 +++++++++++++++++++++++to 1.7011e-006
Heightened Def Con from 1.7011e-006 +++++++++++++++++++++++to 1.7021e-006
Heightened Def Con from 1.7021e-006 +++++++++++++++++++++++to 1.7031e-006
Heightened Def Con from 1.7031e-006 +++++++++++++++++++++++to 1.7041e-006
Heightened Def Con from 1.7041e-006 +++++++++++++++++++++++to 1.7051e-006
Heightened Def Con from 1.7051e-006 +++++++++++++++++++++++to 1.7061e-006
Heightened Def Con from 1.7061e-006 +++++++++++++++++++++++to 1.7071e-006
Heightened Def Con from 1.7071e-006 +++++++++++++++++++++++to 1.7081e-006
Heightened Def Con from 1.7081e-006 +++++++++++++++++++++++to 1.7091e-006
Heightened Def Con from 1.7091e-006 +++++++++++++++++++++++to 1.7101e-006
Heightened Def Con from 1.7101e-006 +++++++++++++++++++++++to 1.7111e-006
Heightened Def Con from 1.7111e-006 +++++++++++++++++++++++to 1.7121e-006
Heightened Def Con from 1.7121e-006 +++++++++++++++++++++++to 1.7131e-006
Heightened Def Con from 1.7131e-006 +++++++++++++++++++++++to 1.7141e-006
Heightened Def Con from 1.7141e-006 +++++++++++++++++++++++to 1.7151e-006
Heightened Def Con from 1.7151e-006 +++++++++++++++++++++++to 1.7161e-006
Heightened Def Con from 1.7161e-006 +++++++++++++++++++++++to 1.7171e-006
Heightened Def Con from 1.7171e-006 +++++++++++++++++++++++to 1.7181e-006
Heightened Def Con from 1.7181e-006 +++++++++++++++++++++++to 1.7191e-006
Heightened Def Con from 1.7191e-006 +++++++++++++++++++++++to 1.7201e-006
Heightened Def Con from 1.7201e-006 +++++++++++++++++++++++to 1.7211e-006
Heightened Def Con from 1.7211e-006 +++++++++++++++++++++++to 1.7221e-006
Heightened Def Con from 1.7221e-006 +++++++++++++++++++++++to 1.7231e-006
Heightened Def Con from 1.7231e-006 +++++++++++++++++++++++to 1.7241e-006
Heightened Def Con from 1.7241e-006 +++++++++++++++++++++++to 1.7251e-006
Heightened Def Con from 1.7251e-006 +++++++++++++++++++++++to 1.7261e-006
Heightened Def Con from 1.7261e-006 +++++++++++++++++++++++to 1.7271e-006
Heightened Def Con from 1.7271e-006 +++++++++++++++++++++++to 1.7281e-006
Heightened Def Con from 1.7281e-006 +++++++++++++++++++++++to 1.7291e-006
Heightened Def Con from 1.7291e-006 +++++++++++++++++++++++to 1.7301e-006
Heightened Def Con from 1.7301e-006 +++++++++++++++++++++++to 1.7311e-006
Heightened Def Con from 1.7311e-006 +++++++++++++++++++++++to 1.7321e-006
Heightened Def Con from 1.7321e-006 +++++++++++++++++++++++to 1.7331e-006
Heightened Def Con from 1.7331e-006 +++++++++++++++++++++++to 1.7341e-006
Heightened Def Con from 1.7341e-006 +++++++++++++++++++++++to 1.7351e-006
Heightened Def Con from 1.7351e-006 +++++++++++++++++++++++to 1.7361e-006
Heightened Def Con from 1.7361e-006 +++++++++++++++++++++++to 1.7371e-006
Heightened Def Con from 1.7371e-006 +++++++++++++++++++++++to 1.7381e-006
Heightened Def Con from 1.7381e-006 +++++++++++++++++++++++to 1.7391e-006
Heightened Def Con from 1.7391e-006 +++++++++++++++++++++++to 1.7401e-006
Heightened Def Con from 1.7401e-006 +++++++++++++++++++++++to 1.7411e-006
Heightened Def Con from 1.7411e-006 +++++++++++++++++++++++to 1.7421e-006
Heightened Def Con from 1.7421e-006 +++++++++++++++++++++++to 1.7431e-006
Heightened Def Con from 1.7431e-006 +++++++++++++++++++++++to 1.7441e-006
Heightened Def Con from 1.7441e-006 +++++++++++++++++++++++to 1.7451e-006
Heightened Def Con from 1.7451e-006 +++++++++++++++++++++++to 1.7461e-006
Heightened Def Con from 1.7461e-006 +++++++++++++++++++++++to 1.7471e-006
Heightened Def Con from 1.7471e-006 +++++++++++++++++++++++to 1.7481e-006
Heightened Def Con from 1.7481e-006 +++++++++++++++++++++++to 1.7491e-006
Heightened Def Con from 1.7491e-006 +++++++++++++++++++++++to 1.7501e-006
Heightened Def Con from 1.7501e-006 +++++++++++++++++++++++to 1.7511e-006
Heightened Def Con from 1.7511e-006 +++++++++++++++++++++++to 1.7521e-006
Heightened Def Con from 1.7521e-006 +++++++++++++++++++++++to 1.7531e-006
Heightened Def Con from 1.7531e-006 +++++++++++++++++++++++to 1.7541e-006
Heightened Def Con from 1.7541e-006 +++++++++++++++++++++++to 1.7551e-006
Heightened Def Con from 1.7551e-006 +++++++++++++++++++++++to 1.7561e-006
Heightened Def Con from 1.7561e-006 +++++++++++++++++++++++to 1.7571e-006
Heightened Def Con from 1.7571e-006 +++++++++++++++++++++++to 1.7581e-006
Heightened Def Con from 1.7581e-006 +++++++++++++++++++++++to 1.7591e-006
Heightened Def Con from 1.7591e-006 +++++++++++++++++++++++to 1.7601e-006
Heightened Def Con from 1.7601e-006 +++++++++++++++++++++++to 1.7611e-006
Heightened Def Con from 1.7611e-006 +++++++++++++++++++++++to 1.7621e-006
Heightened Def Con from 1.7621e-006 +++++++++++++++++++++++to 1.7631e-006
Heightened Def Con from 1.7631e-006 +++++++++++++++++++++++to 1.7641e-006
Heightened Def Con from 1.7641e-006 +++++++++++++++++++++++to 1.7651e-006
Heightened Def Con from 1.7651e-006 +++++++++++++++++++++++to 1.7661e-006
Heightened Def Con from 1.7661e-006 +++++++++++++++++++++++to 1.7671e-006
Heightened Def Con from 1.7671e-006 +++++++++++++++++++++++to 1.7681e-006
Heightened Def Con from 1.7681e-006 +++++++++++++++++++++++to 1.7691e-006
Heightened Def Con from 1.7691e-006 +++++++++++++++++++++++to 1.7701e-006
Heightened Def Con from 1.7701e-006 +++++++++++++++++++++++to 1.7711e-006
Heightened Def Con from 1.7711e-006 +++++++++++++++++++++++to 1.7721e-006
Heightened Def Con from 1.7721e-006 +++++++++++++++++++++++to 1.7731e-006
Heightened Def Con from 1.7731e-006 +++++++++++++++++++++++to 1.7741e-006
Heightened Def Con from 1.7741e-006 +++++++++++++++++++++++to 1.7751e-006
Heightened Def Con from 1.7751e-006 +++++++++++++++++++++++to 1.7761e-006
Heightened Def Con from 1.7761e-006 +++++++++++++++++++++++to 1.7771e-006
Heightened Def Con from 1.7771e-006 +++++++++++++++++++++++to 1.7781e-006
Heightened Def Con from 1.7781e-006 +++++++++++++++++++++++to 1.7791e-006
Heightened Def Con from 1.7791e-006 +++++++++++++++++++++++to 1.7801e-006
Heightened Def Con from 1.7801e-006 +++++++++++++++++++++++to 1.7811e-006
Heightened Def Con from 1.7811e-006 +++++++++++++++++++++++to 1.7821e-006
Heightened Def Con from 1.7821e-006 +++++++++++++++++++++++to 1.7831e-006
Heightened Def Con from 1.7831e-006 +++++++++++++++++++++++to 1.7841e-006
Heightened Def Con from 1.7841e-006 +++++++++++++++++++++++to 1.7851e-006
Heightened Def Con from 1.7851e-006 +++++++++++++++++++++++to 1.7861e-006
Heightened Def Con from 1.7861e-006 +++++++++++++++++++++++to 1.7871e-006
Heightened Def Con from 1.7871e-006 +++++++++++++++++++++++to 1.7881e-006
Heightened Def Con from 1.7881e-006 +++++++++++++++++++++++to 1.7891e-006
Heightened Def Con from 1.7891e-006 +++++++++++++++++++++++to 1.7901e-006
Heightened Def Con from 1.7901e-006 +++++++++++++++++++++++to 1.7911e-006
Heightened Def Con from 1.7911e-006 +++++++++++++++++++++++to 1.7921e-006
Heightened Def Con from 1.7921e-006 +++++++++++++++++++++++to 1.7931e-006
Heightened Def Con from 1.7931e-006 +++++++++++++++++++++++to 1.7941e-006
Heightened Def Con from 1.7941e-006 +++++++++++++++++++++++to 1.7951e-006
Heightened Def Con from 1.7951e-006 +++++++++++++++++++++++to 1.7961e-006
Heightened Def Con from 1.7961e-006 +++++++++++++++++++++++to 1.7971e-006
Heightened Def Con from 1.7971e-006 +++++++++++++++++++++++to 1.7981e-006
Heightened Def Con from 1.7981e-006 +++++++++++++++++++++++to 1.7991e-006
Heightened Def Con from 1.7991e-006 +++++++++++++++++++++++to 1.8001e-006
Heightened Def Con from 1.8001e-006 +++++++++++++++++++++++to 1.8011e-006
Heightened Def Con from 1.8011e-006 +++++++++++++++++++++++to 1.8021e-006
Heightened Def Con from 1.8021e-006 +++++++++++++++++++++++to 1.8031e-006
Heightened Def Con from 1.8031e-006 +++++++++++++++++++++++to 1.8041e-006
Heightened Def Con from 1.8041e-006 +++++++++++++++++++++++to 1.8051e-006
Heightened Def Con from 1.8051e-006 +++++++++++++++++++++++to 1.8061e-006
Heightened Def Con from 1.8061e-006 +++++++++++++++++++++++to 1.8071e-006
Heightened Def Con from 1.8071e-006 +++++++++++++++++++++++to 1.8081e-006
Heightened Def Con from 1.8081e-006 +++++++++++++++++++++++to 1.8091e-006
Heightened Def Con from 1.8091e-006 +++++++++++++++++++++++to 1.8101e-006
Heightened Def Con from 1.8101e-006 +++++++++++++++++++++++to 1.8111e-006
Heightened Def Con from 1.8111e-006 +++++++++++++++++++++++to 1.8121e-006
Heightened Def Con from 1.8121e-006 +++++++++++++++++++++++to 1.8131e-006
Heightened Def Con from 1.8131e-006 +++++++++++++++++++++++to 1.8141e-006
Heightened Def Con from 1.8141e-006 +++++++++++++++++++++++to 1.8151e-006
Heightened Def Con from 1.8151e-006 +++++++++++++++++++++++to 1.8161e-006
Heightened Def Con from 1.8161e-006 +++++++++++++++++++++++to 1.8171e-006
Heightened Def Con from 1.8171e-006 +++++++++++++++++++++++to 1.8181e-006
Heightened Def Con from 1.8181e-006 +++++++++++++++++++++++to 1.8191e-006
Heightened Def Con from 1.8191e-006 +++++++++++++++++++++++to 1.8201e-006
Heightened Def Con from 1.8201e-006 +++++++++++++++++++++++to 1.8211e-006
Heightened Def Con from 1.8211e-006 +++++++++++++++++++++++to 1.8221e-006
Heightened Def Con from 1.8221e-006 +++++++++++++++++++++++to 1.8231e-006
Heightened Def Con from 1.8231e-006 +++++++++++++++++++++++to 1.8241e-006
Heightened Def Con from 1.8241e-006 +++++++++++++++++++++++to 1.8251e-006
Heightened Def Con from 1.8251e-006 +++++++++++++++++++++++to 1.8261e-006
Heightened Def Con from 1.8261e-006 +++++++++++++++++++++++to 1.8271e-006
Heightened Def Con from 1.8271e-006 +++++++++++++++++++++++to 1.8281e-006
Heightened Def Con from 1.8281e-006 +++++++++++++++++++++++to 1.8291e-006
Heightened Def Con from 1.8291e-006 +++++++++++++++++++++++to 1.8301e-006
Heightened Def Con from 1.8301e-006 +++++++++++++++++++++++to 1.8311e-006
Heightened Def Con from 1.8311e-006 +++++++++++++++++++++++to 1.8321e-006
Heightened Def Con from 1.8321e-006 +++++++++++++++++++++++to 1.8331e-006
Heightened Def Con from 1.8331e-006 +++++++++++++++++++++++to 1.8341e-006
Heightened Def Con from 1.8341e-006 +++++++++++++++++++++++to 1.8351e-006
Heightened Def Con from 1.8351e-006 +++++++++++++++++++++++to 1.8361e-006
Heightened Def Con from 1.8361e-006 +++++++++++++++++++++++to 1.8371e-006
Heightened Def Con from 1.8371e-006 +++++++++++++++++++++++to 1.8381e-006
Heightened Def Con from 1.8381e-006 +++++++++++++++++++++++to 1.8391e-006
Heightened Def Con from 1.8391e-006 +++++++++++++++++++++++to 1.8401e-006
Heightened Def Con from 1.8401e-006 +++++++++++++++++++++++to 1.8411e-006
Heightened Def Con from 1.8411e-006 +++++++++++++++++++++++to 1.8421e-006
Heightened Def Con from 1.8421e-006 +++++++++++++++++++++++to 1.8431e-006
Heightened Def Con from 1.8431e-006 +++++++++++++++++++++++to 1.8441e-006
Heightened Def Con from 1.8441e-006 +++++++++++++++++++++++to 1.8451e-006
Heightened Def Con from 1.8451e-006 +++++++++++++++++++++++to 1.8461e-006
Heightened Def Con from 1.8461e-006 +++++++++++++++++++++++to 1.8471e-006
Heightened Def Con from 1.8471e-006 +++++++++++++++++++++++to 1.8481e-006
Heightened Def Con from 1.8481e-006 +++++++++++++++++++++++to 1.8491e-006
Heightened Def Con from 1.8491e-006 +++++++++++++++++++++++to 1.8501e-006
Heightened Def Con from 1.8501e-006 +++++++++++++++++++++++to 1.8511e-006
Heightened Def Con from 1.8511e-006 +++++++++++++++++++++++to 1.8521e-006
Heightened Def Con from 1.8521e-006 +++++++++++++++++++++++to 1.8531e-006
Heightened Def Con from 1.8531e-006 +++++++++++++++++++++++to 1.8541e-006
Heightened Def Con from 1.8541e-006 +++++++++++++++++++++++to 1.8551e-006
Heightened Def Con from 1.8551e-006 +++++++++++++++++++++++to 1.8561e-006
Heightened Def Con from 1.8561e-006 +++++++++++++++++++++++to 1.8571e-006
Heightened Def Con from 1.8571e-006 +++++++++++++++++++++++to 1.8581e-006
Heightened Def Con from 1.8581e-006 +++++++++++++++++++++++to 1.8591e-006
Heightened Def Con from 1.8591e-006 +++++++++++++++++++++++to 1.8601e-006
Heightened Def Con from 1.8601e-006 +++++++++++++++++++++++to 1.8611e-006
Heightened Def Con from 1.8611e-006 +++++++++++++++++++++++to 1.8621e-006
Heightened Def Con from 1.8621e-006 +++++++++++++++++++++++to 1.8631e-006
Heightened Def Con from 1.8631e-006 +++++++++++++++++++++++to 1.8641e-006
Heightened Def Con from 1.8641e-006 +++++++++++++++++++++++to 1.8651e-006
Heightened Def Con from 1.8651e-006 +++++++++++++++++++++++to 1.8661e-006
Heightened Def Con from 1.8661e-006 +++++++++++++++++++++++to 1.8671e-006
Heightened Def Con from 1.8671e-006 +++++++++++++++++++++++to 1.8681e-006
Heightened Def Con from 1.8681e-006 +++++++++++++++++++++++to 1.8691e-006
Heightened Def Con from 1.8691e-006 +++++++++++++++++++++++to 1.8701e-006
Heightened Def Con from 1.8701e-006 +++++++++++++++++++++++to 1.8711e-006
Heightened Def Con from 1.8711e-006 +++++++++++++++++++++++to 1.8721e-006
Heightened Def Con from 1.8721e-006 +++++++++++++++++++++++to 1.8731e-006
Heightened Def Con from 1.8731e-006 +++++++++++++++++++++++to 1.8741e-006
Heightened Def Con from 1.8741e-006 +++++++++++++++++++++++to 1.8751e-006
Heightened Def Con from 1.8751e-006 +++++++++++++++++++++++to 1.8761e-006
Heightened Def Con from 1.8761e-006 +++++++++++++++++++++++to 1.8771e-006
Heightened Def Con from 1.8771e-006 +++++++++++++++++++++++to 1.8781e-006
Heightened Def Con from 1.8781e-006 +++++++++++++++++++++++to 1.8791e-006
Heightened Def Con from 1.8791e-006 +++++++++++++++++++++++to 1.8801e-006
Heightened Def Con from 1.8801e-006 +++++++++++++++++++++++to 1.8811e-006
Heightened Def Con from 1.8811e-006 +++++++++++++++++++++++to 1.8821e-006
Heightened Def Con from 1.8821e-006 +++++++++++++++++++++++to 1.8831e-006
Heightened Def Con from 1.8831e-006 +++++++++++++++++++++++to 1.8841e-006
Heightened Def Con from 1.8841e-006 +++++++++++++++++++++++to 1.8851e-006
Heightened Def Con from 1.8851e-006 +++++++++++++++++++++++to 1.8861e-006
Heightened Def Con from 1.8861e-006 +++++++++++++++++++++++to 1.8871e-006
Heightened Def Con from 1.8871e-006 +++++++++++++++++++++++to 1.8881e-006
Heightened Def Con from 1.8881e-006 +++++++++++++++++++++++to 1.8891e-006
Heightened Def Con from 1.8891e-006 +++++++++++++++++++++++to 1.8901e-006
Heightened Def Con from 1.8901e-006 +++++++++++++++++++++++to 1.8911e-006
Heightened Def Con from 1.8911e-006 +++++++++++++++++++++++to 1.8921e-006
Heightened Def Con from 1.8921e-006 +++++++++++++++++++++++to 1.8931e-006
Heightened Def Con from 1.8931e-006 +++++++++++++++++++++++to 1.8941e-006
Heightened Def Con from 1.8941e-006 +++++++++++++++++++++++to 1.8951e-006
Heightened Def Con from 1.8951e-006 +++++++++++++++++++++++to 1.8961e-006
Heightened Def Con from 1.8961e-006 +++++++++++++++++++++++to 1.8971e-006
Heightened Def Con from 1.8971e-006 +++++++++++++++++++++++to 1.8981e-006
Heightened Def Con from 1.8981e-006 +++++++++++++++++++++++to 1.8991e-006
Heightened Def Con from 1.8991e-006 +++++++++++++++++++++++to 1.9001e-006
Heightened Def Con from 1.9001e-006 +++++++++++++++++++++++to 1.9011e-006
Heightened Def Con from 1.9011e-006 +++++++++++++++++++++++to 1.9021e-006
Heightened Def Con from 1.9021e-006 +++++++++++++++++++++++to 1.9031e-006
Heightened Def Con from 1.9031e-006 +++++++++++++++++++++++to 1.9041e-006
Heightened Def Con from 1.9041e-006 +++++++++++++++++++++++to 1.9051e-006
Heightened Def Con from 1.9051e-006 +++++++++++++++++++++++to 1.9061e-006
Heightened Def Con from 1.9061e-006 +++++++++++++++++++++++to 1.9071e-006
Heightened Def Con from 1.9071e-006 +++++++++++++++++++++++to 1.9081e-006
Heightened Def Con from 1.9081e-006 +++++++++++++++++++++++to 1.9091e-006
Heightened Def Con from 1.9091e-006 +++++++++++++++++++++++to 1.9101e-006
Heightened Def Con from 1.9101e-006 +++++++++++++++++++++++to 1.9111e-006
Heightened Def Con from 1.9111e-006 +++++++++++++++++++++++to 1.9121e-006
Heightened Def Con from 1.9121e-006 +++++++++++++++++++++++to 1.9131e-006
Heightened Def Con from 1.9131e-006 +++++++++++++++++++++++to 1.9141e-006
Heightened Def Con from 1.9141e-006 +++++++++++++++++++++++to 1.9151e-006
Heightened Def Con from 1.9151e-006 +++++++++++++++++++++++to 1.9161e-006
Heightened Def Con from 1.9161e-006 +++++++++++++++++++++++to 1.9171e-006
Heightened Def Con from 1.9171e-006 +++++++++++++++++++++++to 1.9181e-006
Heightened Def Con from 1.9181e-006 +++++++++++++++++++++++to 1.9191e-006
Heightened Def Con from 1.9191e-006 +++++++++++++++++++++++to 1.9201e-006
Heightened Def Con from 1.9201e-006 +++++++++++++++++++++++to 1.9211e-006
Heightened Def Con from 1.9211e-006 +++++++++++++++++++++++to 1.9221e-006
Heightened Def Con from 1.9221e-006 +++++++++++++++++++++++to 1.9231e-006
Heightened Def Con from 1.9231e-006 +++++++++++++++++++++++to 1.9241e-006
Heightened Def Con from 1.9241e-006 +++++++++++++++++++++++to 1.9251e-006
Heightened Def Con from 1.9251e-006 +++++++++++++++++++++++to 1.9261e-006
Heightened Def Con from 1.9261e-006 +++++++++++++++++++++++to 1.9271e-006
Heightened Def Con from 1.9271e-006 +++++++++++++++++++++++to 1.9281e-006
Heightened Def Con from 1.9281e-006 +++++++++++++++++++++++to 1.9291e-006
Heightened Def Con from 1.9291e-006 +++++++++++++++++++++++to 1.9301e-006
Heightened Def Con from 1.9301e-006 +++++++++++++++++++++++to 1.9311e-006
Heightened Def Con from 1.9311e-006 +++++++++++++++++++++++to 1.9321e-006
Heightened Def Con from 1.9321e-006 +++++++++++++++++++++++to 1.9331e-006
Heightened Def Con from 1.9331e-006 +++++++++++++++++++++++to 1.9341e-006
Heightened Def Con from 1.9341e-006 +++++++++++++++++++++++to 1.9351e-006
Heightened Def Con from 1.9351e-006 +++++++++++++++++++++++to 1.9361e-006
Heightened Def Con from 1.9361e-006 +++++++++++++++++++++++to 1.9371e-006
Heightened Def Con from 1.9371e-006 +++++++++++++++++++++++to 1.9381e-006
Heightened Def Con from 1.9381e-006 +++++++++++++++++++++++to 1.9391e-006
Heightened Def Con from 1.9391e-006 +++++++++++++++++++++++to 1.9401e-006
Heightened Def Con from 1.9401e-006 +++++++++++++++++++++++to 1.9411e-006
Heightened Def Con from 1.9411e-006 +++++++++++++++++++++++to 1.9421e-006
Heightened Def Con from 1.9421e-006 +++++++++++++++++++++++to 1.9431e-006
Heightened Def Con from 1.9431e-006 +++++++++++++++++++++++to 1.9441e-006
Heightened Def Con from 1.9441e-006 +++++++++++++++++++++++to 1.9451e-006
Heightened Def Con from 1.9451e-006 +++++++++++++++++++++++to 1.9461e-006
Heightened Def Con from 1.9461e-006 +++++++++++++++++++++++to 1.9471e-006
Heightened Def Con from 1.9471e-006 +++++++++++++++++++++++to 1.9481e-006
Heightened Def Con from 1.9481e-006 +++++++++++++++++++++++to 1.9491e-006
Heightened Def Con from 1.9491e-006 +++++++++++++++++++++++to 1.9501e-006
Heightened Def Con from 1.9501e-006 +++++++++++++++++++++++to 1.9511e-006
Heightened Def Con from 1.9511e-006 +++++++++++++++++++++++to 1.9521e-006
Heightened Def Con from 1.9521e-006 +++++++++++++++++++++++to 1.9531e-006
Heightened Def Con from 1.9531e-006 +++++++++++++++++++++++to 1.9541e-006
Heightened Def Con from 1.9541e-006 +++++++++++++++++++++++to 1.9551e-006
Heightened Def Con from 1.9551e-006 +++++++++++++++++++++++to 1.9561e-006
Heightened Def Con from 1.9561e-006 +++++++++++++++++++++++to 1.9571e-006
Heightened Def Con from 1.9571e-006 +++++++++++++++++++++++to 1.9581e-006
Heightened Def Con from 1.9581e-006 +++++++++++++++++++++++to 1.9591e-006
Heightened Def Con from 1.9591e-006 +++++++++++++++++++++++to 1.9601e-006
Heightened Def Con from 1.9601e-006 +++++++++++++++++++++++to 1.9611e-006
Heightened Def Con from 1.9611e-006 +++++++++++++++++++++++to 1.9621e-006
Heightened Def Con from 1.9621e-006 +++++++++++++++++++++++to 1.9631e-006
Heightened Def Con from 1.9631e-006 +++++++++++++++++++++++to 1.9641e-006
Heightened Def Con from 1.9641e-006 +++++++++++++++++++++++to 1.9651e-006
Heightened Def Con from 1.9651e-006 +++++++++++++++++++++++to 1.9661e-006
Heightened Def Con from 1.9661e-006 +++++++++++++++++++++++to 1.9671e-006
Heightened Def Con from 1.9671e-006 +++++++++++++++++++++++to 1.9681e-006
Heightened Def Con from 1.9681e-006 +++++++++++++++++++++++to 1.9691e-006
Heightened Def Con from 1.9691e-006 +++++++++++++++++++++++to 1.9701e-006
Heightened Def Con from 1.9701e-006 +++++++++++++++++++++++to 1.9711e-006
Heightened Def Con from 1.9711e-006 +++++++++++++++++++++++to 1.9721e-006
Heightened Def Con from 1.9721e-006 +++++++++++++++++++++++to 1.9731e-006
Heightened Def Con from 1.9731e-006 +++++++++++++++++++++++to 1.9741e-006
Heightened Def Con from 1.9741e-006 +++++++++++++++++++++++to 1.9751e-006
Heightened Def Con from 1.9751e-006 +++++++++++++++++++++++to 1.9761e-006
Heightened Def Con from 1.9761e-006 +++++++++++++++++++++++to 1.9771e-006
Heightened Def Con from 1.9771e-006 +++++++++++++++++++++++to 1.9781e-006
Heightened Def Con from 1.9781e-006 +++++++++++++++++++++++to 1.9791e-006
Heightened Def Con from 1.9791e-006 +++++++++++++++++++++++to 1.9801e-006
[...]
Heightened Def Con from 2.9431e-006 +++++++++++++++++++++++to 2.9441e-006
Heightened Def Con from 2.9441e-006 +++++++++++++++++++++++to 2.9451e-006
Heightened Def Con from 2.9451e-006 +++++++++++++++++++++++to 2.9461e-006
Heightened Def Con from 2.9461e-006 +++++++++++++++++++++++to 2.9471e-006
Heightened Def Con from 2.9471e-006 +++++++++++++++++++++++to 2.9481e-006
Heightened Def Con from 2.9481e-006 +++++++++++++++++++++++to 2.9491e-006
Heightened Def Con from 2.9491e-006 +++++++++++++++++++++++to 2.9501e-006
Heightened Def Con from 2.9501e-006 +++++++++++++++++++++++to 2.9511e-006
Heightened Def Con from 2.9511e-006 +++++++++++++++++++++++to 2.9521e-006
Heightened Def Con from 2.9521e-006 +++++++++++++++++++++++to 2.9531e-006
Heightened Def Con from 2.9531e-006 +++++++++++++++++++++++to 2.9541e-006
Heightened Def Con from 2.9541e-006 +++++++++++++++++++++++to 2.9551e-006
Heightened Def Con from 2.9551e-006 +++++++++++++++++++++++to 2.9561e-006
Heightened Def Con from 2.9561e-006 +++++++++++++++++++++++to 2.9571e-006
Heightened Def Con from 2.9571e-006 +++++++++++++++++++++++to 2.9581e-006
Heightened Def Con from 2.9581e-006 +++++++++++++++++++++++to 2.9591e-006
Heightened Def Con from 2.9591e-006 +++++++++++++++++++++++to 2.9601e-006
Heightened Def Con from 2.9601e-006 +++++++++++++++++++++++to 2.9611e-006
Heightened Def Con from 2.9611e-006 +++++++++++++++++++++++to 2.9621e-006
Heightened Def Con from 2.9621e-006 +++++++++++++++++++++++to 2.9631e-006
Heightened Def Con from 2.9631e-006 +++++++++++++++++++++++to 2.9641e-006
Heightened Def Con from 2.9641e-006 +++++++++++++++++++++++to 2.9651e-006
Heightened Def Con from 2.9651e-006 +++++++++++++++++++++++to 2.9661e-006
Heightened Def Con from 2.9661e-006 +++++++++++++++++++++++to 2.9671e-006
Heightened Def Con from 2.9671e-006 +++++++++++++++++++++++to 2.9681e-006
Heightened Def Con from 2.9681e-006 +++++++++++++++++++++++to 2.9691e-006
Heightened Def Con from 2.9691e-006 +++++++++++++++++++++++to 2.9701e-006
Heightened Def Con from 2.9701e-006 +++++++++++++++++++++++to 2.9711e-006
Heightened Def Con from 2.9711e-006 +++++++++++++++++++++++to 2.9721e-006
Heightened Def Con from 2.9721e-006 +++++++++++++++++++++++to 2.9731e-006
Heightened Def Con from 2.9731e-006 +++++++++++++++++++++++to 2.9741e-006
Heightened Def Con from 2.9741e-006 +++++++++++++++++++++++to 2.9751e-006
Heightened Def Con from 2.9751e-006 +++++++++++++++++++++++to 2.9761e-006
Heightened Def Con from 2.9761e-006 +++++++++++++++++++++++to 2.9771e-006
Heightened Def Con from 2.9771e-006 +++++++++++++++++++++++to 2.9781e-006
Heightened Def Con from 2.9781e-006 +++++++++++++++++++++++to 2.9791e-006
Heightened Def Con from 2.9791e-006 +++++++++++++++++++++++to 2.9801e-006
Heightened Def Con from 2.9801e-006 +++++++++++++++++++++++to 2.9811e-006
Heightened Def Con from 2.9811e-006 +++++++++++++++++++++++to 2.9821e-006
Heightened Def Con from 2.9821e-006 +++++++++++++++++++++++to 2.9831e-006
Heightened Def Con from 2.9831e-006 +++++++++++++++++++++++to 2.9841e-006
Heightened Def Con from 2.9841e-006 +++++++++++++++++++++++to 2.9851e-006
Heightened Def Con from 2.9851e-006 +++++++++++++++++++++++to 2.9861e-006
Heightened Def Con from 2.9861e-006 +++++++++++++++++++++++to 2.9871e-006
Heightened Def Con from 2.9871e-006 +++++++++++++++++++++++to 2.9881e-006
Heightened Def Con from 2.9881e-006 +++++++++++++++++++++++to 2.9891e-006
Heightened Def Con from 2.9891e-006 +++++++++++++++++++++++to 2.9901e-006
Heightened Def Con from 2.9901e-006 +++++++++++++++++++++++to 2.9911e-006
Heightened Def Con from 2.9911e-006 +++++++++++++++++++++++to 2.9921e-006
Heightened Def Con from 2.9921e-006 +++++++++++++++++++++++to 2.9931e-006
Heightened Def Con from 2.9931e-006 +++++++++++++++++++++++to 2.9941e-006
Heightened Def Con from 2.9941e-006 +++++++++++++++++++++++to 2.9951e-006
Heightened Def Con from 2.9951e-006 +++++++++++++++++++++++to 2.9961e-006
Heightened Def Con from 2.9961e-006 +++++++++++++++++++++++to 2.9971e-006
Heightened Def Con from 2.9971e-006 +++++++++++++++++++++++to 2.9981e-006
Heightened Def Con from 2.9981e-006 +++++++++++++++++++++++to 2.9991e-006
Heightened Def Con from 2.9991e-006 +++++++++++++++++++++++to 3.0001e-006
Heightened Def Con from 3.0001e-006 +++++++++++++++++++++++to 3.0011e-006
Heightened Def Con from 3.0011e-006 +++++++++++++++++++++++to 3.0021e-006
Heightened Def Con from 3.0021e-006 +++++++++++++++++++++++to 3.0031e-006
Heightened Def Con from 3.0031e-006 +++++++++++++++++++++++to 3.0041e-006
Heightened Def Con from 3.0041e-006 +++++++++++++++++++++++to 3.0051e-006
Heightened Def Con from 3.0051e-006 +++++++++++++++++++++++to 3.0061e-006
Heightened Def Con from 3.0061e-006 +++++++++++++++++++++++to 3.0071e-006
Heightened Def Con from 3.0071e-006 +++++++++++++++++++++++to 3.0081e-006
Heightened Def Con from 3.0081e-006 +++++++++++++++++++++++to 3.0091e-006
Heightened Def Con from 3.0091e-006 +++++++++++++++++++++++to 3.0101e-006
Heightened Def Con from 3.0101e-006 +++++++++++++++++++++++to 3.0111e-006
Heightened Def Con from 3.0111e-006 +++++++++++++++++++++++to 3.0121e-006
Heightened Def Con from 3.0121e-006 +++++++++++++++++++++++to 3.0131e-006
Heightened Def Con from 3.0131e-006 +++++++++++++++++++++++to 3.0141e-006
Heightened Def Con from 3.0141e-006 +++++++++++++++++++++++to 3.0151e-006
Heightened Def Con from 3.0151e-006 +++++++++++++++++++++++to 3.0161e-006
Heightened Def Con from 3.0161e-006 +++++++++++++++++++++++to 3.0171e-006
Heightened Def Con from 3.0171e-006 +++++++++++++++++++++++to 3.0181e-006
Heightened Def Con from 3.0181e-006 +++++++++++++++++++++++to 3.0191e-006
Heightened Def Con from 3.0191e-006 +++++++++++++++++++++++to 3.0201e-006
Heightened Def Con from 3.0201e-006 +++++++++++++++++++++++to 3.0211e-006
Heightened Def Con from 3.0211e-006 +++++++++++++++++++++++to 3.0221e-006
Heightened Def Con from 3.0221e-006 +++++++++++++++++++++++to 3.0231e-006
Heightened Def Con from 3.0231e-006 +++++++++++++++++++++++to 3.0241e-006
Heightened Def Con from 3.0241e-006 +++++++++++++++++++++++to 3.0251e-006
Heightened Def Con from 3.0251e-006 +++++++++++++++++++++++to 3.0261e-006
Heightened Def Con from 3.0261e-006 +++++++++++++++++++++++to 3.0271e-006
Heightened Def Con from 3.0271e-006 +++++++++++++++++++++++to 3.0281e-006
Heightened Def Con from 3.0281e-006 +++++++++++++++++++++++to 3.0291e-006
Heightened Def Con from 3.0291e-006 +++++++++++++++++++++++to 3.0301e-006
Heightened Def Con from 3.0301e-006 +++++++++++++++++++++++to 3.0311e-006
Heightened Def Con from 3.0311e-006 +++++++++++++++++++++++to 3.0321e-006
Heightened Def Con from 3.0321e-006 +++++++++++++++++++++++to 3.0331e-006
Heightened Def Con from 3.0331e-006 +++++++++++++++++++++++to 3.0341e-006
Heightened Def Con from 3.0341e-006 +++++++++++++++++++++++to 3.0351e-006
Heightened Def Con from 3.0351e-006 +++++++++++++++++++++++to 3.0361e-006
Heightened Def Con from 3.0361e-006 +++++++++++++++++++++++to 3.0371e-006
Heightened Def Con from 3.0371e-006 +++++++++++++++++++++++to 3.0381e-006
Heightened Def Con from 3.0381e-006 +++++++++++++++++++++++to 3.0391e-006
Heightened Def Con from 3.0391e-006 +++++++++++++++++++++++to 3.0401e-006
Heightened Def Con from 3.0401e-006 +++++++++++++++++++++++to 3.0411e-006
Heightened Def Con from 3.0411e-006 +++++++++++++++++++++++to 3.0421e-006
Heightened Def Con from 3.0421e-006 +++++++++++++++++++++++to 3.0431e-006
Heightened Def Con from 3.0431e-006 +++++++++++++++++++++++to 3.0441e-006
Heightened Def Con from 3.0441e-006 +++++++++++++++++++++++to 3.0451e-006
Heightened Def Con from 3.0451e-006 +++++++++++++++++++++++to 3.0461e-006
Heightened Def Con from 3.0461e-006 +++++++++++++++++++++++to 3.0471e-006
Heightened Def Con from 3.0471e-006 +++++++++++++++++++++++to 3.0481e-006
Heightened Def Con from 3.0481e-006 +++++++++++++++++++++++to 3.0491e-006
Heightened Def Con from 3.0491e-006 +++++++++++++++++++++++to 3.0501e-006
Heightened Def Con from 3.0501e-006 +++++++++++++++++++++++to 3.0511e-006
Heightened Def Con from 3.0511e-006 +++++++++++++++++++++++to 3.0521e-006
Heightened Def Con from 3.0521e-006 +++++++++++++++++++++++to 3.0531e-006
Heightened Def Con from 3.0531e-006 +++++++++++++++++++++++to 3.0541e-006
Heightened Def Con from 3.0541e-006 +++++++++++++++++++++++to 3.0551e-006
Heightened Def Con from 3.0551e-006 +++++++++++++++++++++++to 3.0561e-006
Heightened Def Con from 3.0561e-006 +++++++++++++++++++++++to 3.0571e-006
Heightened Def Con from 3.0571e-006 +++++++++++++++++++++++to 3.0581e-006
Heightened Def Con from 3.0581e-006 +++++++++++++++++++++++to 3.0591e-006
Heightened Def Con from 3.0591e-006 +++++++++++++++++++++++to 3.0601e-006
Heightened Def Con from 3.0601e-006 +++++++++++++++++++++++to 3.0611e-006
Heightened Def Con from 3.0611e-006 +++++++++++++++++++++++to 3.0621e-006
Heightened Def Con from 3.0621e-006 +++++++++++++++++++++++to 3.0631e-006
Heightened Def Con from 3.0631e-006 +++++++++++++++++++++++to 3.0641e-006
Heightened Def Con from 3.0641e-006 +++++++++++++++++++++++to 3.0651e-006
Heightened Def Con from 3.0651e-006 +++++++++++++++++++++++to 3.0661e-006
Heightened Def Con from 3.0661e-006 +++++++++++++++++++++++to 3.0671e-006
Heightened Def Con from 3.0671e-006 +++++++++++++++++++++++to 3.0681e-006
Heightened Def Con from 3.0681e-006 +++++++++++++++++++++++to 3.0691e-006
Heightened Def Con from 3.0691e-006 +++++++++++++++++++++++to 3.0701e-006
Heightened Def Con from 3.0701e-006 +++++++++++++++++++++++to 3.0711e-006
Heightened Def Con from 3.0711e-006 +++++++++++++++++++++++to 3.0721e-006
Heightened Def Con from 3.0721e-006 +++++++++++++++++++++++to 3.0731e-006
Heightened Def Con from 3.0731e-006 +++++++++++++++++++++++to 3.0741e-006
Heightened Def Con from 3.0741e-006 +++++++++++++++++++++++to 3.0751e-006
Heightened Def Con from 3.0751e-006 +++++++++++++++++++++++to 3.0761e-006
Heightened Def Con from 3.0761e-006 +++++++++++++++++++++++to 3.0771e-006
Heightened Def Con from 3.0771e-006 +++++++++++++++++++++++to 3.0781e-006
Heightened Def Con from 3.0781e-006 +++++++++++++++++++++++to 3.0791e-006
Heightened Def Con from 3.0791e-006 +++++++++++++++++++++++to 3.0801e-006
Heightened Def Con from 3.0801e-006 +++++++++++++++++++++++to 3.0811e-006
Heightened Def Con from 3.0811e-006 +++++++++++++++++++++++to 3.0821e-006
Heightened Def Con from 3.0821e-006 +++++++++++++++++++++++to 3.0831e-006
Heightened Def Con from 3.0831e-006 +++++++++++++++++++++++to 3.0841e-006
Heightened Def Con from 3.0841e-006 +++++++++++++++++++++++to 3.0851e-006
Heightened Def Con from 3.0851e-006 +++++++++++++++++++++++to 3.0861e-006
Heightened Def Con from 3.0861e-006 +++++++++++++++++++++++to 3.0871e-006
Heightened Def Con from 3.0871e-006 +++++++++++++++++++++++to 3.0881e-006
Heightened Def Con from 3.0881e-006 +++++++++++++++++++++++to 3.0891e-006
Heightened Def Con from 3.0891e-006 +++++++++++++++++++++++to 3.0901e-006
Heightened Def Con from 3.0901e-006 +++++++++++++++++++++++to 3.0911e-006
Heightened Def Con from 3.0911e-006 +++++++++++++++++++++++to 3.0921e-006
Heightened Def Con from 3.0921e-006 +++++++++++++++++++++++to 3.0931e-006
Heightened Def Con from 3.0931e-006 +++++++++++++++++++++++to 3.0941e-006
Heightened Def Con from 3.0941e-006 +++++++++++++++++++++++to 3.0951e-006
Heightened Def Con from 3.0951e-006 +++++++++++++++++++++++to 3.0961e-006
Heightened Def Con from 3.0961e-006 +++++++++++++++++++++++to 3.0971e-006
Heightened Def Con from 3.0971e-006 +++++++++++++++++++++++to 3.0981e-006
Heightened Def Con from 3.0981e-006 +++++++++++++++++++++++to 3.0991e-006
Heightened Def Con from 3.0991e-006 +++++++++++++++++++++++to 3.1001e-006
Heightened Def Con from 3.1001e-006 +++++++++++++++++++++++to 3.1011e-006
Heightened Def Con from 3.1011e-006 +++++++++++++++++++++++to 3.1021e-006
Heightened Def Con from 3.1021e-006 +++++++++++++++++++++++to 3.1031e-006
Heightened Def Con from 3.1031e-006 +++++++++++++++++++++++to 3.1041e-006
Heightened Def Con from 3.1041e-006 +++++++++++++++++++++++to 3.1051e-006
Heightened Def Con from 3.1051e-006 +++++++++++++++++++++++to 3.1061e-006
Heightened Def Con from 3.1061e-006 +++++++++++++++++++++++to 3.1071e-006
Heightened Def Con from 3.1071e-006 +++++++++++++++++++++++to 3.1081e-006
Heightened Def Con from 3.1081e-006 +++++++++++++++++++++++to 3.1091e-006
Heightened Def Con from 3.1091e-006 +++++++++++++++++++++++to 3.1101e-006
Heightened Def Con from 3.1101e-006 +++++++++++++++++++++++to 3.1111e-006
Heightened Def Con from 3.1111e-006 +++++++++++++++++++++++to 3.1121e-006
Heightened Def Con from 3.1121e-006 +++++++++++++++++++++++to 3.1131e-006
Heightened Def Con from 3.1131e-006 +++++++++++++++++++++++to 3.1141e-006
Heightened Def Con from 3.1141e-006 +++++++++++++++++++++++to 3.1151e-006
Heightened Def Con from 3.1151e-006 +++++++++++++++++++++++to 3.1161e-006
Heightened Def Con from 3.1161e-006 +++++++++++++++++++++++to 3.1171e-006
Heightened Def Con from 3.1171e-006 +++++++++++++++++++++++to 3.1181e-006
Heightened Def Con from 3.1181e-006 +++++++++++++++++++++++to 3.1191e-006
Heightened Def Con from 3.1191e-006 +++++++++++++++++++++++to 3.1201e-006
Heightened Def Con from 3.1201e-006 +++++++++++++++++++++++to 3.1211e-006
Heightened Def Con from 3.1211e-006 +++++++++++++++++++++++to 3.1221e-006
Heightened Def Con from 3.1221e-006 +++++++++++++++++++++++to 3.1231e-006
Heightened Def Con from 3.1231e-006 +++++++++++++++++++++++to 3.1241e-006
Heightened Def Con from 3.1241e-006 +++++++++++++++++++++++to 3.1251e-006
Heightened Def Con from 3.1251e-006 +++++++++++++++++++++++to 3.1261e-006
Heightened Def Con from 3.1261e-006 +++++++++++++++++++++++to 3.1271e-006
Heightened Def Con from 3.1271e-006 +++++++++++++++++++++++to 3.1281e-006
Heightened Def Con from 3.1281e-006 +++++++++++++++++++++++to 3.1291e-006
Heightened Def Con from 3.1291e-006 +++++++++++++++++++++++to 3.1301e-006
Heightened Def Con from 3.1301e-006 +++++++++++++++++++++++to 3.1311e-006
Heightened Def Con from 3.1311e-006 +++++++++++++++++++++++to 3.1321e-006
Heightened Def Con from 3.1321e-006 +++++++++++++++++++++++to 3.1331e-006
Heightened Def Con from 3.1331e-006 +++++++++++++++++++++++to 3.1341e-006
Heightened Def Con from 3.1341e-006 +++++++++++++++++++++++to 3.1351e-006
Heightened Def Con from 3.1351e-006 +++++++++++++++++++++++to 3.1361e-006
Heightened Def Con from 3.1361e-006 +++++++++++++++++++++++to 3.1371e-006
Heightened Def Con from 3.1371e-006 +++++++++++++++++++++++to 3.1381e-006
Heightened Def Con from 3.1381e-006 +++++++++++++++++++++++to 3.1391e-006
Heightened Def Con from 3.1391e-006 +++++++++++++++++++++++to 3.1401e-006
Heightened Def Con from 3.1401e-006 +++++++++++++++++++++++to 3.1411e-006
Heightened Def Con from 3.1411e-006 +++++++++++++++++++++++to 3.1421e-006
Heightened Def Con from 3.1421e-006 +++++++++++++++++++++++to 3.1431e-006
Heightened Def Con from 3.1431e-006 +++++++++++++++++++++++to 3.1441e-006
Heightened Def Con from 3.1441e-006 +++++++++++++++++++++++to 3.1451e-006
Heightened Def Con from 3.1451e-006 +++++++++++++++++++++++to 3.1461e-006
Heightened Def Con from 3.1461e-006 +++++++++++++++++++++++to 3.1471e-006
Heightened Def Con from 3.1471e-006 +++++++++++++++++++++++to 3.1481e-006
Heightened Def Con from 3.1481e-006 +++++++++++++++++++++++to 3.1491e-006
Heightened Def Con from 3.1491e-006 +++++++++++++++++++++++to 3.1501e-006
Heightened Def Con from 3.1501e-006 +++++++++++++++++++++++to 3.1511e-006
Heightened Def Con from 3.1511e-006 +++++++++++++++++++++++to 3.1521e-006
Heightened Def Con from 3.1521e-006 +++++++++++++++++++++++to 3.1531e-006
Heightened Def Con from 3.1531e-006 +++++++++++++++++++++++to 3.1541e-006
Heightened Def Con from 3.1541e-006 +++++++++++++++++++++++to 3.1551e-006
Heightened Def Con from 3.1551e-006 +++++++++++++++++++++++to 3.1561e-006
Heightened Def Con from 3.1561e-006 +++++++++++++++++++++++to 3.1571e-006
Heightened Def Con from 3.1571e-006 +++++++++++++++++++++++to 3.1581e-006
Heightened Def Con from 3.1581e-006 +++++++++++++++++++++++to 3.1591e-006
Heightened Def Con from 3.1591e-006 +++++++++++++++++++++++to 3.1601e-006
Heightened Def Con from 3.1601e-006 +++++++++++++++++++++++to 3.1611e-006
Heightened Def Con from 3.1611e-006 +++++++++++++++++++++++to 3.1621e-006
Heightened Def Con from 3.1621e-006 +++++++++++++++++++++++to 3.1631e-006
Heightened Def Con from 3.1631e-006 +++++++++++++++++++++++to 3.1641e-006
Heightened Def Con from 3.1641e-006 +++++++++++++++++++++++to 3.1651e-006
Heightened Def Con from 3.1651e-006 +++++++++++++++++++++++to 3.1661e-006
Heightened Def Con from 3.1661e-006 +++++++++++++++++++++++to 3.1671e-006
Heightened Def Con from 3.1671e-006 +++++++++++++++++++++++to 3.1681e-006
Heightened Def Con from 3.1681e-006 +++++++++++++++++++++++to 3.1691e-006
Heightened Def Con from 3.1691e-006 +++++++++++++++++++++++to 3.1701e-006
Heightened Def Con from 3.1701e-006 +++++++++++++++++++++++to 3.1711e-006
Heightened Def Con from 3.1711e-006 +++++++++++++++++++++++to 3.1721e-006
Heightened Def Con from 3.1721e-006 +++++++++++++++++++++++to 3.1731e-006
Heightened Def Con from 3.1731e-006 +++++++++++++++++++++++to 3.1741e-006
Heightened Def Con from 3.1741e-006 +++++++++++++++++++++++to 3.1751e-006
Heightened Def Con from 3.1751e-006 +++++++++++++++++++++++to 3.1761e-006
Heightened Def Con from 3.1761e-006 +++++++++++++++++++++++to 3.1771e-006
Heightened Def Con from 3.1771e-006 +++++++++++++++++++++++to 3.1781e-006
Heightened Def Con from 3.1781e-006 +++++++++++++++++++++++to 3.1791e-006
Heightened Def Con from 3.1791e-006 +++++++++++++++++++++++to 3.1801e-006
Heightened Def Con from 3.1801e-006 +++++++++++++++++++++++to 3.1811e-006
Heightened Def Con from 3.1811e-006 +++++++++++++++++++++++to 3.1821e-006
Heightened Def Con from 3.1821e-006 +++++++++++++++++++++++to 3.1831e-006
Heightened Def Con from 3.1831e-006 +++++++++++++++++++++++to 3.1841e-006
Heightened Def Con from 3.1841e-006 +++++++++++++++++++++++to 3.1851e-006
Heightened Def Con from 3.1851e-006 +++++++++++++++++++++++to 3.1861e-006
Heightened Def Con from 3.1861e-006 +++++++++++++++++++++++to 3.1871e-006
Heightened Def Con from 3.1871e-006 +++++++++++++++++++++++to 3.1881e-006
Heightened Def Con from 3.1881e-006 +++++++++++++++++++++++to 3.1891e-006
Heightened Def Con from 3.1891e-006 +++++++++++++++++++++++to 3.1901e-006
Heightened Def Con from 3.1901e-006 +++++++++++++++++++++++to 3.1911e-006
Heightened Def Con from 3.1911e-006 +++++++++++++++++++++++to 3.1921e-006
Heightened Def Con from 3.1921e-006 +++++++++++++++++++++++to 3.1931e-006
Heightened Def Con from 3.1931e-006 +++++++++++++++++++++++to 3.1941e-006
Heightened Def Con from 3.1941e-006 +++++++++++++++++++++++to 3.1951e-006
Heightened Def Con from 3.1951e-006 +++++++++++++++++++++++to 3.1961e-006
Heightened Def Con from 3.1961e-006 +++++++++++++++++++++++to 3.1971e-006
Heightened Def Con from 3.1971e-006 +++++++++++++++++++++++to 3.1981e-006
Heightened Def Con from 3.1981e-006 +++++++++++++++++++++++to 3.1991e-006
Heightened Def Con from 3.1991e-006 +++++++++++++++++++++++to 3.201e-006
Heightened Def Con from 3.201e-006 +++++++++++++++++++++++to 3.2011e-006
Heightened Def Con from 3.2011e-006 +++++++++++++++++++++++to 3.202e-006
Heightened Def Con from 3.202e-006 ++++++++++++++++++++++to 3.2021e-006

Date: Thu Nov 29 11:00:57 2012
Total elapsed time: 465.882 seconds.

tnom = 27
temp = 27
method = modified trap
totiter = 5896750
traniter = 5896711
tranpoints = 540931
accept = 56419
rejected = 532703
matrix size = 90
fillins = 166
solver = Normal
Thread vector: 91.6/50.3[2] 30.4/16.2[2] 11.7/7.5[2] 2.5/152.4[1]  2592/500
Matrix Compiler1: 24.5 KB object code size  9.1/6.7/[3.6]
Matrix Compiler2: 14.4 KB object code size  3.9/4.7/[2.7]


