Circuit: * C:\Users\sbecht\Documents\GitHub\ultra-efficient-adc\Simulations\comparator.asc

Fatal Error: Voltage source V:X1:6 and voltage source V5 are paralleled making an over-defined circuit matrix.
You will need to correct the circuit or add some series resistance.
