Circuit: * C:\Users\sbecht\Documents\GitHub\ultra-efficient-adc\Simulations\comparator_gainlatch.asc

Direct Newton iteration for .op point succeeded.

Date: Fri Nov 16 20:11:22 2012
Total elapsed time: 11.145 seconds.

tnom = 27
temp = 27
method = modified trap
totiter = 200053
traniter = 200034
tranpoints = 100018
accept = 100018
rejected = 0
matrix size = 21
fillins = 4
solver = Normal
Matrix Compiler1: 1.29 KB object code size  2.7/2.4/[1.8]
Matrix Compiler2: 2.12 KB object code size  2.4/2.9/[2.4]


