Circuit: * C:\Users\sbecht\Documents\GitHub\ultra-efficient-adc\Simulations\comparator.asc

Fatal Error: Shorted voltage source: x2:v2
