Circuit: * C:\Users\sbecht\Dropbox\VLSIProject\Simulations\comparator_preamp_sim.asc

Direct Newton iteration for .op point succeeded.

Date: Tue Nov 13 13:37:09 2012
Total elapsed time: 0.269 seconds.

tnom = 27
temp = 27
method = modified trap
totiter = 12052
traniter = 12035
tranpoints = 6018
accept = 6018
rejected = 0
matrix size = 14
fillins = 0
solver = Normal
Matrix Compiler1: 600 bytes object code size  1.5/1.5/[1.4]
Matrix Compiler2: 1.22 KB object code size  1.5/1.7/[1.5]


