Circuit: * C:\Users\sbecht\Documents\GitHub\ultra-efficient-adc\Simulations\comparator_preamp_sim.asc

Direct Newton iteration failed to find .op point.  (Use ".option noopiter" to skip.)
Starting Gmin stepping
Gmin = 10
Gmin = 1.07374
Gmin = 0.115292
Gmin = 0.0123794
Gmin = 0.00132923
Gmin = 0.000142725
Gmin = 1.5325e-005
Gmin = 1.6455e-006
Gmin = 1.76685e-007
Gmin = 1.89714e-008
Gmin = 2.03704e-009
Gmin = 2.18725e-010
Gmin = 2.34854e-011
Gmin = 2.52173e-012
Gmin = 2.70769e-013
Gmin = 0
Gmin stepping succeeded in finding the operating point.

.step v2=3.6
.step v2=3.7
.step v2=3.8
.step v2=3.9
.step v2=4
.step v2=4.1
.step v2=4.2
.step v2=4.3
.step v2=4.4

Date: Fri Nov 16 19:41:28 2012
Total elapsed time: 2.149 seconds.

tnom = 27
temp = 27
method = modified trap
totiter = 12576
traniter = 12034
tranpoints = 6018
accept = 6018
rejected = 0
matrix size = 14
fillins = 0
solver = Normal
Matrix Compiler1: 654 bytes object code size  1.9/1.5/[1.3]
Matrix Compiler2:      97 opcodes  1.7/[1.6]/1.7


